data_IRMOF10_SG202_Ligand4_label_i.

_audit_creation_method             'generated by an auxiliary program of Tobunporous'

_symmetry_space_group_name_H-M     'P 1'
_symmetry_Int_Tables_number        1
_symmetry_cell_setting             triclinic

_cell_length_a                    34.2800
_cell_length_b                    34.2800
_cell_length_c                    34.2800
_cell_angle_alpha                 90.0000
_cell_angle_beta                  90.0000
_cell_angle_gamma                 90.0000

loop_
_atom_site_label
_atom_site_fract_x
_atom_site_fract_y
_atom_site_fract_z
_atom_site_occupancy
O1       0.75000    0.75000    0.75000   1.00
Zn1      0.71720    0.78280    0.78280   1.00
Zn1      0.78280    0.71720    0.78280   1.00
Zn1      0.78280    0.78280    0.71720   1.00
Zn1      0.71720    0.71720    0.71720   1.00
O2       0.72650    0.77350    0.83820   1.00
O2       0.72650    0.83820    0.77350   1.00
O2       0.66180    0.77350    0.77350   1.00
O2       0.77350    0.72650    0.83820   1.00
O2       0.83820    0.72650    0.77350   1.00
O2       0.77350    0.66180    0.77350   1.00
O2       0.77350    0.83820    0.72650   1.00
O2       0.83820    0.77350    0.72650   1.00
O2       0.77350    0.77350    0.66180   1.00
O2       0.66180    0.72650    0.72650   1.00
O2       0.72650    0.66180    0.72650   1.00
O2       0.72650    0.72650    0.66180   1.00
C1       0.75000    0.75000    0.85520   1.00
C1       0.75000    0.85520    0.75000   1.00
C1       0.64480    0.75000    0.75000   1.00
C1       0.85520    0.75000    0.75000   1.00
C1       0.75000    0.64480    0.75000   1.00
C1       0.75000    0.75000    0.64480   1.00
O1       0.25000    0.25000    0.75000   1.00
Zn1      0.21720    0.28280    0.78280   1.00
Zn1      0.28280    0.21720    0.78280   1.00
Zn1      0.28280    0.28280    0.71720   1.00
Zn1      0.21720    0.21720    0.71720   1.00
O2       0.22650    0.27350    0.83820   1.00
O2       0.22650    0.33820    0.77350   1.00
O2       0.16180    0.27350    0.77350   1.00
O2       0.27350    0.22650    0.83820   1.00
O2       0.33820    0.22650    0.77350   1.00
O2       0.27350    0.16180    0.77350   1.00
O2       0.27350    0.33820    0.72650   1.00
O2       0.33820    0.27350    0.72650   1.00
O2       0.27350    0.27350    0.66180   1.00
O2       0.16180    0.22650    0.72650   1.00
O2       0.22650    0.16180    0.72650   1.00
O2       0.22650    0.22650    0.66180   1.00
C1       0.25000    0.25000    0.85520   1.00
C1       0.25000    0.35520    0.75000   1.00
C1       0.14480    0.25000    0.75000   1.00
C1       0.35520    0.25000    0.75000   1.00
C1       0.25000    0.14480    0.75000   1.00
C1       0.25000    0.25000    0.64480   1.00
O1       0.25000    0.75000    0.25000   1.00
Zn1      0.21720    0.78280    0.28280   1.00
Zn1      0.28280    0.71720    0.28280   1.00
Zn1      0.28280    0.78280    0.21720   1.00
Zn1      0.21720    0.71720    0.21720   1.00
O2       0.22650    0.77350    0.33820   1.00
O2       0.22650    0.83820    0.27350   1.00
O2       0.16180    0.77350    0.27350   1.00
O2       0.27350    0.72650    0.33820   1.00
O2       0.33820    0.72650    0.27350   1.00
O2       0.27350    0.66180    0.27350   1.00
O2       0.27350    0.83820    0.22650   1.00
O2       0.33820    0.77350    0.22650   1.00
O2       0.27350    0.77350    0.16180   1.00
O2       0.16180    0.72650    0.22650   1.00
O2       0.22650    0.66180    0.22650   1.00
O2       0.22650    0.72650    0.16180   1.00
C1       0.25000    0.75000    0.35520   1.00
C1       0.25000    0.85520    0.25000   1.00
C1       0.14480    0.75000    0.25000   1.00
C1       0.35520    0.75000    0.25000   1.00
C1       0.25000    0.64480    0.25000   1.00
C1       0.25000    0.75000    0.14480   1.00
O1       0.75000    0.25000    0.25000   1.00
Zn1      0.71720    0.28280    0.28280   1.00
Zn1      0.78280    0.21720    0.28280   1.00
Zn1      0.78280    0.28280    0.21720   1.00
Zn1      0.71720    0.21720    0.21720   1.00
O2       0.72650    0.27350    0.33820   1.00
O2       0.72650    0.33820    0.27350   1.00
O2       0.66180    0.27350    0.27350   1.00
O2       0.77350    0.22650    0.33820   1.00
O2       0.83820    0.22650    0.27350   1.00
O2       0.77350    0.16180    0.27350   1.00
O2       0.77350    0.33820    0.22650   1.00
O2       0.83820    0.27350    0.22650   1.00
O2       0.77350    0.27350    0.16180   1.00
O2       0.66180    0.22650    0.22650   1.00
O2       0.72650    0.16180    0.22650   1.00
O2       0.72650    0.22650    0.16180   1.00
C1       0.75000    0.25000    0.35520   1.00
C1       0.75000    0.35520    0.25000   1.00
C1       0.64480    0.25000    0.25000   1.00
C1       0.85520    0.25000    0.25000   1.00
C1       0.75000    0.14480    0.25000   1.00
C1       0.75000    0.25000    0.14480   1.00
O1       0.25000    0.25000    0.25000   1.00
Zn1      0.28280    0.21720    0.21720   1.00
Zn1      0.21720    0.28280    0.21720   1.00
Zn1      0.21720    0.21720    0.28280   1.00
Zn1      0.28280    0.28280    0.28280   1.00
O2       0.27350    0.22650    0.16180   1.00
O2       0.27350    0.16180    0.22650   1.00
O2       0.33820    0.22650    0.22650   1.00
O2       0.22650    0.27350    0.16180   1.00
O2       0.16180    0.27350    0.22650   1.00
O2       0.22650    0.33820    0.22650   1.00
O2       0.22650    0.16180    0.27350   1.00
O2       0.16180    0.22650    0.27350   1.00
O2       0.22650    0.22650    0.33820   1.00
O2       0.33820    0.27350    0.27350   1.00
O2       0.27350    0.33820    0.27350   1.00
O2       0.27350    0.27350    0.33820   1.00
C1       0.25000    0.25000    0.14480   1.00
C1       0.25000    0.14480    0.25000   1.00
C1       0.35520    0.25000    0.25000   1.00
C1       0.14480    0.25000    0.25000   1.00
C1       0.25000    0.35520    0.25000   1.00
C1       0.25000    0.25000    0.35520   1.00
O1       0.75000    0.75000    0.25000   1.00
Zn1      0.78280    0.71720    0.21720   1.00
Zn1      0.71720    0.78280    0.21720   1.00
Zn1      0.71720    0.71720    0.28280   1.00
Zn1      0.78280    0.78280    0.28280   1.00
O2       0.77350    0.72650    0.16180   1.00
O2       0.77350    0.66180    0.22650   1.00
O2       0.83820    0.72650    0.22650   1.00
O2       0.72650    0.77350    0.16180   1.00
O2       0.66180    0.77350    0.22650   1.00
O2       0.72650    0.83820    0.22650   1.00
O2       0.72650    0.66180    0.27350   1.00
O2       0.66180    0.72650    0.27350   1.00
O2       0.72650    0.72650    0.33820   1.00
O2       0.83820    0.77350    0.27350   1.00
O2       0.77350    0.83820    0.27350   1.00
O2       0.77350    0.77350    0.33820   1.00
C1       0.75000    0.75000    0.14480   1.00
C1       0.75000    0.64480    0.25000   1.00
C1       0.85520    0.75000    0.25000   1.00
C1       0.64480    0.75000    0.25000   1.00
C1       0.75000    0.85520    0.25000   1.00
C1       0.75000    0.75000    0.35520   1.00
O1       0.75000    0.25000    0.75000   1.00
Zn1      0.78280    0.21720    0.71720   1.00
Zn1      0.71720    0.28280    0.71720   1.00
Zn1      0.71720    0.21720    0.78280   1.00
Zn1      0.78280    0.28280    0.78280   1.00
O2       0.77350    0.22650    0.66180   1.00
O2       0.77350    0.16180    0.72650   1.00
O2       0.83820    0.22650    0.72650   1.00
O2       0.72650    0.27350    0.66180   1.00
O2       0.66180    0.27350    0.72650   1.00
O2       0.72650    0.33820    0.72650   1.00
O2       0.72650    0.16180    0.77350   1.00
O2       0.66180    0.22650    0.77350   1.00
O2       0.72650    0.22650    0.83820   1.00
O2       0.83820    0.27350    0.77350   1.00
O2       0.77350    0.33820    0.77350   1.00
O2       0.77350    0.27350    0.83820   1.00
C1       0.75000    0.25000    0.64480   1.00
C1       0.75000    0.14480    0.75000   1.00
C1       0.85520    0.25000    0.75000   1.00
C1       0.64480    0.25000    0.75000   1.00
C1       0.75000    0.35520    0.75000   1.00
C1       0.75000    0.25000    0.85520   1.00
O1       0.25000    0.75000    0.75000   1.00
Zn1      0.28280    0.71720    0.71720   1.00
Zn1      0.21720    0.78280    0.71720   1.00
Zn1      0.21720    0.71720    0.78280   1.00
Zn1      0.28280    0.78280    0.78280   1.00
O2       0.27350    0.72650    0.66180   1.00
O2       0.27350    0.66180    0.72650   1.00
O2       0.33820    0.72650    0.72650   1.00
O2       0.22650    0.77350    0.66180   1.00
O2       0.16180    0.77350    0.72650   1.00
O2       0.22650    0.83820    0.72650   1.00
O2       0.22650    0.66180    0.77350   1.00
O2       0.16180    0.72650    0.77350   1.00
O2       0.22650    0.72650    0.83820   1.00
O2       0.33820    0.77350    0.77350   1.00
O2       0.27350    0.83820    0.77350   1.00
O2       0.27350    0.77350    0.83820   1.00
C1       0.25000    0.75000    0.64480   1.00
C1       0.25000    0.64480    0.75000   1.00
C1       0.35520    0.75000    0.75000   1.00
C1       0.14480    0.75000    0.75000   1.00
C1       0.25000    0.85520    0.75000   1.00
C1       0.25000    0.75000    0.85520   1.00
C4       0.74580    0.74770    0.98025   1.00
C4       0.74439    0.74834    1.02191   1.00
C3       0.76080    0.71527    0.95897   1.00
C3       0.75401    0.71516    1.04504   1.00
C3       0.73185    0.78050    0.95854   1.00
C3       0.73293    0.78325    1.04170   1.00
C2       0.74690    0.74555    0.89595   1.00
C2       0.74341    0.75019    1.10622   1.00
C3       0.76118    0.71408    0.91811   1.00
C3       0.75375    0.71603    1.08591   1.00
C3       0.73255    0.77803    0.91696   1.00
C3       0.73325    0.78300    1.08336   1.00
H1       0.77237    0.69146    0.97237   1.00
H1       0.76120    0.68898    1.03306   1.00
C5       0.71793    0.81464    0.97835   1.00
C5       0.72135    0.81709    1.01998   1.00
H1       0.77224    0.68978    0.90451   1.00
H1       0.76114    0.69116    1.10091   1.00
H1       0.72264    0.80066    0.90052   1.00
H1       0.72554    0.80734    1.09848   1.00
C6       0.69944    0.84738    0.95515   1.00
C6       0.71332    0.85502    1.04119   1.00
H2       0.67981    0.83493    0.93345   1.00
H2       0.73589    0.85963    1.06310   1.00
H2       0.67941    0.86444    0.97286   1.00
H2       0.71752    0.88014    1.02228   1.00
C6       0.73007    0.87549    0.93606   1.00
C6       0.67141    0.85696    1.05942   1.00
H2       0.75355    0.85835    0.92292   1.00
H2       0.66475    0.82929    1.07383   1.00
C6       0.71496    0.90495    0.90459   1.00
C6       0.66285    0.89061    1.08911   1.00
H2       0.74391    0.89210    0.95949   1.00
H2       0.65050    0.85920    1.03546   1.00
C6       0.70046    0.88368    0.86735   1.00
C6       0.68706    0.88599    1.12708   1.00
C6       0.68176    0.93104    0.92074   1.00
C6       0.67101    0.93125    1.07107   1.00
C6       0.74928    0.93193    0.89245   1.00
C6       0.61903    0.88894    1.10054   1.00
H2       0.72304    0.86451    0.85558   1.00
H2       0.68243    0.85731    1.14020   1.00
H2       0.67475    0.86598    0.87330   1.00
H2       0.71817    0.88928    1.12154   1.00
H2       0.69254    0.90449    0.84459   1.00
H2       0.67892    0.90797    1.14863   1.00
H2       0.67336    0.95329    0.89955   1.00
H2       0.66232    0.95455    1.09098   1.00
H2       0.65585    0.91378    0.92725   1.00
H2       0.70200    0.93498    1.06494   1.00
H2       0.69094    0.94573    0.94745   1.00
H2       0.65493    0.93494    1.04385   1.00
H2       0.77341    0.91495    0.88042   1.00
H2       0.61179    0.86090    1.11383   1.00
H2       0.74021    0.95292    0.87025   1.00
H2       0.61165    0.91178    1.12149   1.00
H2       0.76030    0.94838    0.91739   1.00
H2       0.60037    0.89283    1.07502   1.00
C4       0.74770    0.98025    0.74580   1.00
C4       0.74834    1.02191    0.74439   1.00
C3       0.71527    0.95897    0.76080   1.00
C3       0.71516    1.04504    0.75401   1.00
C3       0.78050    0.95854    0.73185   1.00
C3       0.78325    1.04170    0.73293   1.00
C2       0.74555    0.89595    0.74690   1.00
C2       0.75019    1.10622    0.74341   1.00
C3       0.71408    0.91811    0.76118   1.00
C3       0.71603    1.08591    0.75375   1.00
C3       0.77803    0.91696    0.73255   1.00
C3       0.78300    1.08336    0.73325   1.00
H1       0.69146    0.97237    0.77237   1.00
H1       0.68898    1.03306    0.76120   1.00
C5       0.81464    0.97835    0.71793   1.00
C5       0.81709    1.01998    0.72135   1.00
H1       0.68978    0.90451    0.77224   1.00
H1       0.69116    1.10091    0.76114   1.00
H1       0.80066    0.90052    0.72264   1.00
H1       0.80734    1.09848    0.72554   1.00
C6       0.84738    0.95515    0.69944   1.00
C6       0.85502    1.04119    0.71332   1.00
H2       0.83493    0.93345    0.67981   1.00
H2       0.85963    1.06310    0.73589   1.00
H2       0.86444    0.97286    0.67941   1.00
H2       0.88014    1.02228    0.71752   1.00
C6       0.87549    0.93606    0.73007   1.00
C6       0.85696    1.05942    0.67141   1.00
H2       0.85835    0.92292    0.75355   1.00
H2       0.82929    1.07383    0.66475   1.00
C6       0.90495    0.90459    0.71496   1.00
C6       0.89061    1.08911    0.66285   1.00
H2       0.89210    0.95949    0.74391   1.00
H2       0.85920    1.03546    0.65050   1.00
C6       0.88368    0.86735    0.70046   1.00
C6       0.88599    1.12708    0.68706   1.00
C6       0.93104    0.92074    0.68176   1.00
C6       0.93125    1.07107    0.67101   1.00
C6       0.93193    0.89245    0.74928   1.00
C6       0.88894    1.10054    0.61903   1.00
H2       0.86451    0.85558    0.72304   1.00
H2       0.85731    1.14020    0.68243   1.00
H2       0.86598    0.87330    0.67475   1.00
H2       0.88928    1.12154    0.71817   1.00
H2       0.90449    0.84459    0.69254   1.00
H2       0.90797    1.14863    0.67892   1.00
H2       0.95329    0.89955    0.67336   1.00
H2       0.95455    1.09098    0.66232   1.00
H2       0.91378    0.92725    0.65585   1.00
H2       0.93498    1.06494    0.70200   1.00
H2       0.94573    0.94745    0.69094   1.00
H2       0.93494    1.04385    0.65493   1.00
H2       0.91495    0.88042    0.77341   1.00
H2       0.86090    1.11383    0.61179   1.00
H2       0.95292    0.87025    0.74021   1.00
H2       0.91178    1.12149    0.61165   1.00
H2       0.94838    0.91739    0.76030   1.00
H2       0.89283    1.07502    0.60037   1.00
C4       0.51975    0.74580    0.75230   1.00
C4       0.47809    0.74439    0.75166   1.00
C3       0.54103    0.76080    0.78473   1.00
C3       0.45496    0.75401    0.78484   1.00
C3       0.54146    0.73185    0.71950   1.00
C3       0.45830    0.73293    0.71675   1.00
C2       0.60405    0.74690    0.75445   1.00
C2       0.39378    0.74341    0.74981   1.00
C3       0.58189    0.76118    0.78592   1.00
C3       0.41409    0.75375    0.78397   1.00
C3       0.58304    0.73255    0.72197   1.00
C3       0.41664    0.73325    0.71700   1.00
H1       0.52763    0.77237    0.80854   1.00
H1       0.46694    0.76120    0.81102   1.00
C5       0.52165    0.71793    0.68536   1.00
C5       0.48002    0.72135    0.68291   1.00
H1       0.59549    0.77224    0.81022   1.00
H1       0.39909    0.76114    0.80884   1.00
H1       0.59948    0.72264    0.69934   1.00
H1       0.40152    0.72554    0.69266   1.00
C6       0.54485    0.69944    0.65262   1.00
C6       0.45881    0.71332    0.64498   1.00
H2       0.56655    0.67981    0.66507   1.00
H2       0.43690    0.73589    0.64037   1.00
H2       0.52714    0.67941    0.63556   1.00
H2       0.47772    0.71752    0.61986   1.00
C6       0.56394    0.73007    0.62451   1.00
C6       0.44058    0.67141    0.64304   1.00
H2       0.57708    0.75355    0.64165   1.00
H2       0.42617    0.66475    0.67071   1.00
C6       0.59541    0.71496    0.59505   1.00
C6       0.41089    0.66285    0.60939   1.00
H2       0.54051    0.74391    0.60790   1.00
H2       0.46454    0.65050    0.64080   1.00
C6       0.63265    0.70046    0.61632   1.00
C6       0.37292    0.68706    0.61401   1.00
C6       0.57926    0.68176    0.56896   1.00
C6       0.42893    0.67101    0.56875   1.00
C6       0.60755    0.74928    0.56807   1.00
C6       0.39946    0.61903    0.61106   1.00
H2       0.64442    0.72304    0.63549   1.00
H2       0.35980    0.68243    0.64269   1.00
H2       0.62670    0.67475    0.63402   1.00
H2       0.37846    0.71817    0.61072   1.00
H2       0.65541    0.69254    0.59551   1.00
H2       0.35137    0.67892    0.59203   1.00
H2       0.60045    0.67336    0.54671   1.00
H2       0.40902    0.66232    0.54545   1.00
H2       0.57275    0.65585    0.58622   1.00
H2       0.43506    0.70200    0.56502   1.00
H2       0.55255    0.69094    0.55427   1.00
H2       0.45615    0.65493    0.56506   1.00
H2       0.61958    0.77341    0.58505   1.00
H2       0.38617    0.61179    0.63910   1.00
H2       0.62975    0.74021    0.54708   1.00
H2       0.37851    0.61165    0.58822   1.00
H2       0.58261    0.76030    0.55162   1.00
H2       0.42498    0.60037    0.60717   1.00
C4       0.98025    0.74580    0.74770   1.00
C4       1.02191    0.74439    0.74834   1.00
C3       0.95897    0.76080    0.71527   1.00
C3       1.04504    0.75401    0.71516   1.00
C3       0.95854    0.73185    0.78050   1.00
C3       1.04170    0.73293    0.78325   1.00
C2       0.89595    0.74690    0.74555   1.00
C2       1.10622    0.74341    0.75019   1.00
C3       0.91811    0.76118    0.71408   1.00
C3       1.08591    0.75375    0.71603   1.00
C3       0.91696    0.73255    0.77803   1.00
C3       1.08336    0.73325    0.78300   1.00
H1       0.97237    0.77237    0.69146   1.00
H1       1.03306    0.76120    0.68898   1.00
C5       0.97835    0.71793    0.81464   1.00
C5       1.01998    0.72135    0.81709   1.00
H1       0.90451    0.77224    0.68978   1.00
H1       1.10091    0.76114    0.69116   1.00
H1       0.90052    0.72264    0.80066   1.00
H1       1.09848    0.72554    0.80734   1.00
C6       0.95515    0.69944    0.84738   1.00
C6       1.04119    0.71332    0.85502   1.00
H2       0.93345    0.67981    0.83493   1.00
H2       1.06310    0.73589    0.85963   1.00
H2       0.97286    0.67941    0.86444   1.00
H2       1.02228    0.71752    0.88014   1.00
C6       0.93606    0.73007    0.87549   1.00
C6       1.05942    0.67141    0.85696   1.00
H2       0.92292    0.75355    0.85835   1.00
H2       1.07383    0.66475    0.82929   1.00
C6       0.90459    0.71496    0.90495   1.00
C6       1.08911    0.66285    0.89061   1.00
H2       0.95949    0.74391    0.89210   1.00
H2       1.03546    0.65050    0.85920   1.00
C6       0.86735    0.70046    0.88368   1.00
C6       1.12708    0.68706    0.88599   1.00
C6       0.92074    0.68176    0.93104   1.00
C6       1.07107    0.67101    0.93125   1.00
C6       0.89245    0.74928    0.93193   1.00
C6       1.10054    0.61903    0.88894   1.00
H2       0.85558    0.72304    0.86451   1.00
H2       1.14020    0.68243    0.85731   1.00
H2       0.87330    0.67475    0.86598   1.00
H2       1.12154    0.71817    0.88928   1.00
H2       0.84459    0.69254    0.90449   1.00
H2       1.14863    0.67892    0.90797   1.00
H2       0.89955    0.67336    0.95329   1.00
H2       1.09098    0.66232    0.95455   1.00
H2       0.92725    0.65585    0.91378   1.00
H2       1.06494    0.70200    0.93498   1.00
H2       0.94745    0.69094    0.94573   1.00
H2       1.04385    0.65493    0.93494   1.00
H2       0.88042    0.77341    0.91495   1.00
H2       1.11383    0.61179    0.86090   1.00
H2       0.87025    0.74021    0.95292   1.00
H2       1.12149    0.61165    0.91178   1.00
H2       0.91739    0.76030    0.94838   1.00
H2       1.07502    0.60037    0.89283   1.00
C4       0.75230    0.51975    0.74580   1.00
C4       0.75166    0.47809    0.74439   1.00
C3       0.78473    0.54103    0.76080   1.00
C3       0.78484    0.45496    0.75401   1.00
C3       0.71950    0.54146    0.73185   1.00
C3       0.71675    0.45830    0.73293   1.00
C2       0.75445    0.60405    0.74690   1.00
C2       0.74981    0.39378    0.74341   1.00
C3       0.78592    0.58189    0.76118   1.00
C3       0.78397    0.41409    0.75375   1.00
C3       0.72197    0.58304    0.73255   1.00
C3       0.71700    0.41664    0.73325   1.00
H1       0.80854    0.52763    0.77237   1.00
H1       0.81102    0.46694    0.76120   1.00
C5       0.68536    0.52165    0.71793   1.00
C5       0.68291    0.48002    0.72135   1.00
H1       0.81022    0.59549    0.77224   1.00
H1       0.80884    0.39909    0.76114   1.00
H1       0.69934    0.59948    0.72264   1.00
H1       0.69266    0.40152    0.72554   1.00
C6       0.65262    0.54485    0.69944   1.00
C6       0.64498    0.45881    0.71332   1.00
H2       0.66507    0.56655    0.67981   1.00
H2       0.64037    0.43690    0.73589   1.00
H2       0.63556    0.52714    0.67941   1.00
H2       0.61986    0.47772    0.71752   1.00
C6       0.62451    0.56394    0.73007   1.00
C6       0.64304    0.44058    0.67141   1.00
H2       0.64165    0.57708    0.75355   1.00
H2       0.67071    0.42617    0.66475   1.00
C6       0.59505    0.59541    0.71496   1.00
C6       0.60939    0.41089    0.66285   1.00
H2       0.60790    0.54051    0.74391   1.00
H2       0.64080    0.46454    0.65050   1.00
C6       0.61632    0.63265    0.70046   1.00
C6       0.61401    0.37292    0.68706   1.00
C6       0.56896    0.57926    0.68176   1.00
C6       0.56875    0.42893    0.67101   1.00
C6       0.56807    0.60755    0.74928   1.00
C6       0.61106    0.39946    0.61903   1.00
H2       0.63549    0.64442    0.72304   1.00
H2       0.64269    0.35980    0.68243   1.00
H2       0.63402    0.62670    0.67475   1.00
H2       0.61072    0.37846    0.71817   1.00
H2       0.59551    0.65541    0.69254   1.00
H2       0.59203    0.35137    0.67892   1.00
H2       0.54671    0.60045    0.67336   1.00
H2       0.54545    0.40902    0.66232   1.00
H2       0.58622    0.57275    0.65585   1.00
H2       0.56502    0.43506    0.70200   1.00
H2       0.55427    0.55255    0.69094   1.00
H2       0.56506    0.45615    0.65493   1.00
H2       0.58505    0.61958    0.77341   1.00
H2       0.63910    0.38617    0.61179   1.00
H2       0.54708    0.62975    0.74021   1.00
H2       0.58822    0.37851    0.61165   1.00
H2       0.55162    0.58261    0.76030   1.00
H2       0.60717    0.42498    0.60037   1.00
C4       0.74580    0.75230    0.51975   1.00
C4       0.74439    0.75166    0.47809   1.00
C3       0.76080    0.78473    0.54103   1.00
C3       0.75401    0.78484    0.45496   1.00
C3       0.73185    0.71950    0.54146   1.00
C3       0.73293    0.71675    0.45830   1.00
C2       0.74690    0.75445    0.60405   1.00
C2       0.74341    0.74981    0.39378   1.00
C3       0.76118    0.78592    0.58189   1.00
C3       0.75375    0.78397    0.41409   1.00
C3       0.73255    0.72197    0.58304   1.00
C3       0.73325    0.71700    0.41664   1.00
H1       0.77237    0.80854    0.52763   1.00
H1       0.76120    0.81102    0.46694   1.00
C5       0.71793    0.68536    0.52165   1.00
C5       0.72135    0.68291    0.48002   1.00
H1       0.77224    0.81022    0.59549   1.00
H1       0.76114    0.80884    0.39909   1.00
H1       0.72264    0.69934    0.59948   1.00
H1       0.72554    0.69266    0.40152   1.00
C6       0.69944    0.65262    0.54485   1.00
C6       0.71332    0.64498    0.45881   1.00
H2       0.67981    0.66507    0.56655   1.00
H2       0.73589    0.64037    0.43690   1.00
H2       0.67941    0.63556    0.52714   1.00
H2       0.71752    0.61986    0.47772   1.00
C6       0.73007    0.62451    0.56394   1.00
C6       0.67141    0.64304    0.44058   1.00
H2       0.75355    0.64165    0.57708   1.00
H2       0.66475    0.67071    0.42617   1.00
C6       0.71496    0.59505    0.59541   1.00
C6       0.66285    0.60939    0.41089   1.00
H2       0.74391    0.60790    0.54051   1.00
H2       0.65050    0.64080    0.46454   1.00
C6       0.70046    0.61632    0.63265   1.00
C6       0.68706    0.61401    0.37292   1.00
C6       0.68176    0.56896    0.57926   1.00
C6       0.67101    0.56875    0.42893   1.00
C6       0.74928    0.56807    0.60755   1.00
C6       0.61903    0.61106    0.39946   1.00
H2       0.72304    0.63549    0.64442   1.00
H2       0.68243    0.64269    0.35980   1.00
H2       0.67475    0.63402    0.62670   1.00
H2       0.71817    0.61072    0.37846   1.00
H2       0.69254    0.59551    0.65541   1.00
H2       0.67892    0.59203    0.35137   1.00
H2       0.67336    0.54671    0.60045   1.00
H2       0.66232    0.54545    0.40902   1.00
H2       0.65585    0.58622    0.57275   1.00
H2       0.70200    0.56502    0.43506   1.00
H2       0.69094    0.55427    0.55255   1.00
H2       0.65493    0.56506    0.45615   1.00
H2       0.77341    0.58505    0.61958   1.00
H2       0.61179    0.63910    0.38617   1.00
H2       0.74021    0.54708    0.62975   1.00
H2       0.61165    0.58822    0.37851   1.00
H2       0.76030    0.55162    0.58261   1.00
H2       0.60037    0.60717    0.42498   1.00
C4       0.24580    0.24770    0.98025   1.00
C4       0.24439    0.24834    1.02191   1.00
C3       0.26080    0.21527    0.95897   1.00
C3       0.25401    0.21516    1.04504   1.00
C3       0.23185    0.28050    0.95854   1.00
C3       0.23293    0.28325    1.04170   1.00
C2       0.24690    0.24555    0.89595   1.00
C2       0.24341    0.25019    1.10622   1.00
C3       0.26118    0.21408    0.91811   1.00
C3       0.25375    0.21603    1.08591   1.00
C3       0.23255    0.27803    0.91696   1.00
C3       0.23325    0.28300    1.08336   1.00
H1       0.27237    0.19146    0.97237   1.00
H1       0.26120    0.18898    1.03306   1.00
C5       0.21793    0.31464    0.97835   1.00
C5       0.22135    0.31709    1.01998   1.00
H1       0.27224    0.18978    0.90451   1.00
H1       0.26114    0.19116    1.10091   1.00
H1       0.22264    0.30066    0.90052   1.00
H1       0.22554    0.30734    1.09848   1.00
C6       0.19944    0.34738    0.95515   1.00
C6       0.21332    0.35502    1.04119   1.00
H2       0.17981    0.33493    0.93345   1.00
H2       0.23589    0.35963    1.06310   1.00
H2       0.17941    0.36444    0.97286   1.00
H2       0.21752    0.38014    1.02228   1.00
C6       0.23007    0.37549    0.93606   1.00
C6       0.17141    0.35696    1.05942   1.00
H2       0.25355    0.35835    0.92292   1.00
H2       0.16475    0.32929    1.07383   1.00
C6       0.21496    0.40495    0.90459   1.00
C6       0.16285    0.39061    1.08911   1.00
H2       0.24391    0.39210    0.95949   1.00
H2       0.15050    0.35920    1.03546   1.00
C6       0.20046    0.38368    0.86735   1.00
C6       0.18706    0.38599    1.12708   1.00
C6       0.18176    0.43104    0.92074   1.00
C6       0.17101    0.43125    1.07107   1.00
C6       0.24928    0.43193    0.89245   1.00
C6       0.11903    0.38894    1.10054   1.00
H2       0.22304    0.36451    0.85558   1.00
H2       0.18243    0.35731    1.14020   1.00
H2       0.17475    0.36598    0.87330   1.00
H2       0.21817    0.38928    1.12154   1.00
H2       0.19254    0.40449    0.84459   1.00
H2       0.17892    0.40797    1.14863   1.00
H2       0.17336    0.45329    0.89955   1.00
H2       0.16232    0.45455    1.09098   1.00
H2       0.15585    0.41378    0.92725   1.00
H2       0.20200    0.43498    1.06494   1.00
H2       0.19094    0.44573    0.94745   1.00
H2       0.15493    0.43494    1.04385   1.00
H2       0.27341    0.41495    0.88042   1.00
H2       0.11179    0.36090    1.11383   1.00
H2       0.24021    0.45292    0.87025   1.00
H2       0.11165    0.41178    1.12149   1.00
H2       0.26030    0.44838    0.91739   1.00
H2       0.10037    0.39283    1.07502   1.00
C4       0.24770    0.48025    0.74580   1.00
C4       0.24834    0.52191    0.74439   1.00
C3       0.21527    0.45897    0.76080   1.00
C3       0.21516    0.54504    0.75401   1.00
C3       0.28050    0.45854    0.73185   1.00
C3       0.28325    0.54170    0.73293   1.00
C2       0.24555    0.39595    0.74690   1.00
C2       0.25019    0.60622    0.74341   1.00
C3       0.21408    0.41811    0.76118   1.00
C3       0.21603    0.58591    0.75375   1.00
C3       0.27803    0.41696    0.73255   1.00
C3       0.28300    0.58336    0.73325   1.00
H1       0.19146    0.47237    0.77237   1.00
H1       0.18898    0.53306    0.76120   1.00
C5       0.31464    0.47835    0.71793   1.00
C5       0.31709    0.51998    0.72135   1.00
H1       0.18978    0.40451    0.77224   1.00
H1       0.19116    0.60091    0.76114   1.00
H1       0.30066    0.40052    0.72264   1.00
H1       0.30734    0.59848    0.72554   1.00
C6       0.34738    0.45515    0.69944   1.00
C6       0.35502    0.54119    0.71332   1.00
H2       0.33493    0.43345    0.67981   1.00
H2       0.35963    0.56310    0.73589   1.00
H2       0.36444    0.47286    0.67941   1.00
H2       0.38014    0.52228    0.71752   1.00
C6       0.37549    0.43606    0.73007   1.00
C6       0.35696    0.55942    0.67141   1.00
H2       0.35835    0.42292    0.75355   1.00
H2       0.32929    0.57383    0.66475   1.00
C6       0.40495    0.40459    0.71496   1.00
C6       0.39061    0.58911    0.66285   1.00
H2       0.39210    0.45949    0.74391   1.00
H2       0.35920    0.53546    0.65050   1.00
C6       0.38368    0.36735    0.70046   1.00
C6       0.38599    0.62708    0.68706   1.00
C6       0.43104    0.42074    0.68176   1.00
C6       0.43125    0.57107    0.67101   1.00
C6       0.43193    0.39245    0.74928   1.00
C6       0.38894    0.60054    0.61903   1.00
H2       0.36451    0.35558    0.72304   1.00
H2       0.35731    0.64020    0.68243   1.00
H2       0.36598    0.37330    0.67475   1.00
H2       0.38928    0.62154    0.71817   1.00
H2       0.40449    0.34459    0.69254   1.00
H2       0.40797    0.64863    0.67892   1.00
H2       0.45329    0.39955    0.67336   1.00
H2       0.45455    0.59098    0.66232   1.00
H2       0.41378    0.42725    0.65585   1.00
H2       0.43498    0.56494    0.70200   1.00
H2       0.44573    0.44745    0.69094   1.00
H2       0.43494    0.54385    0.65493   1.00
H2       0.41495    0.38042    0.77341   1.00
H2       0.36090    0.61383    0.61179   1.00
H2       0.45292    0.37025    0.74021   1.00
H2       0.41178    0.62149    0.61165   1.00
H2       0.44838    0.41739    0.76030   1.00
H2       0.39283    0.57502    0.60037   1.00
C4       0.01975    0.24580    0.75230   1.00
C4       -0.02191   0.24439    0.75166   1.00
C3       0.04103    0.26080    0.78473   1.00
C3       -0.04504   0.25401    0.78484   1.00
C3       0.04146    0.23185    0.71950   1.00
C3       -0.04170   0.23293    0.71675   1.00
C2       0.10405    0.24690    0.75445   1.00
C2       -0.10622   0.24341    0.74981   1.00
C3       0.08189    0.26118    0.78592   1.00
C3       -0.08591   0.25375    0.78397   1.00
C3       0.08304    0.23255    0.72197   1.00
C3       -0.08336   0.23325    0.71700   1.00
H1       0.02763    0.27237    0.80854   1.00
H1       -0.03306   0.26120    0.81102   1.00
C5       0.02165    0.21793    0.68536   1.00
C5       -0.01998   0.22135    0.68291   1.00
H1       0.09549    0.27224    0.81022   1.00
H1       -0.10091   0.26114    0.80884   1.00
H1       0.09948    0.22264    0.69934   1.00
H1       -0.09848   0.22554    0.69266   1.00
C6       0.04485    0.19944    0.65262   1.00
C6       -0.04119   0.21332    0.64498   1.00
H2       0.06655    0.17981    0.66507   1.00
H2       -0.06310   0.23589    0.64037   1.00
H2       0.02714    0.17941    0.63556   1.00
H2       -0.02228   0.21752    0.61986   1.00
C6       0.06394    0.23007    0.62451   1.00
C6       -0.05942   0.17141    0.64304   1.00
H2       0.07708    0.25355    0.64165   1.00
H2       -0.07383   0.16475    0.67071   1.00
C6       0.09541    0.21496    0.59505   1.00
C6       -0.08911   0.16285    0.60939   1.00
H2       0.04051    0.24391    0.60790   1.00
H2       -0.03546   0.15050    0.64080   1.00
C6       0.13265    0.20046    0.61632   1.00
C6       -0.12708   0.18706    0.61401   1.00
C6       0.07926    0.18176    0.56896   1.00
C6       -0.07107   0.17101    0.56875   1.00
C6       0.10755    0.24928    0.56807   1.00
C6       -0.10054   0.11903    0.61106   1.00
H2       0.14442    0.22304    0.63549   1.00
H2       -0.14020   0.18243    0.64269   1.00
H2       0.12670    0.17475    0.63402   1.00
H2       -0.12154   0.21817    0.61072   1.00
H2       0.15541    0.19254    0.59551   1.00
H2       -0.14863   0.17892    0.59203   1.00
H2       0.10045    0.17336    0.54671   1.00
H2       -0.09098   0.16232    0.54545   1.00
H2       0.07275    0.15585    0.58622   1.00
H2       -0.06494   0.20200    0.56502   1.00
H2       0.05255    0.19094    0.55427   1.00
H2       -0.04385   0.15493    0.56506   1.00
H2       0.11958    0.27341    0.58505   1.00
H2       -0.11383   0.11179    0.63910   1.00
H2       0.12975    0.24021    0.54708   1.00
H2       -0.12149   0.11165    0.58822   1.00
H2       0.08261    0.26030    0.55162   1.00
H2       -0.07502   0.10037    0.60717   1.00
C4       0.48025    0.24580    0.74770   1.00
C4       0.52191    0.24439    0.74834   1.00
C3       0.45897    0.26080    0.71527   1.00
C3       0.54504    0.25401    0.71516   1.00
C3       0.45854    0.23185    0.78050   1.00
C3       0.54170    0.23293    0.78325   1.00
C2       0.39595    0.24690    0.74555   1.00
C2       0.60622    0.24341    0.75019   1.00
C3       0.41811    0.26118    0.71408   1.00
C3       0.58591    0.25375    0.71603   1.00
C3       0.41696    0.23255    0.77803   1.00
C3       0.58336    0.23325    0.78300   1.00
H1       0.47237    0.27237    0.69146   1.00
H1       0.53306    0.26120    0.68898   1.00
C5       0.47835    0.21793    0.81464   1.00
C5       0.51998    0.22135    0.81709   1.00
H1       0.40451    0.27224    0.68978   1.00
H1       0.60091    0.26114    0.69116   1.00
H1       0.40052    0.22264    0.80066   1.00
H1       0.59848    0.22554    0.80734   1.00
C6       0.45515    0.19944    0.84738   1.00
C6       0.54119    0.21332    0.85502   1.00
H2       0.43345    0.17981    0.83493   1.00
H2       0.56310    0.23589    0.85963   1.00
H2       0.47286    0.17941    0.86444   1.00
H2       0.52228    0.21752    0.88014   1.00
C6       0.43606    0.23007    0.87549   1.00
C6       0.55942    0.17141    0.85696   1.00
H2       0.42292    0.25355    0.85835   1.00
H2       0.57383    0.16475    0.82929   1.00
C6       0.40459    0.21496    0.90495   1.00
C6       0.58911    0.16285    0.89061   1.00
H2       0.45949    0.24391    0.89210   1.00
H2       0.53546    0.15050    0.85920   1.00
C6       0.36735    0.20046    0.88368   1.00
C6       0.62708    0.18706    0.88599   1.00
C6       0.42074    0.18176    0.93104   1.00
C6       0.57107    0.17101    0.93125   1.00
C6       0.39245    0.24928    0.93193   1.00
C6       0.60054    0.11903    0.88894   1.00
H2       0.35558    0.22304    0.86451   1.00
H2       0.64020    0.18243    0.85731   1.00
H2       0.37330    0.17475    0.86598   1.00
H2       0.62154    0.21817    0.88928   1.00
H2       0.34459    0.19254    0.90449   1.00
H2       0.64863    0.17892    0.90797   1.00
H2       0.39955    0.17336    0.95329   1.00
H2       0.59098    0.16232    0.95455   1.00
H2       0.42725    0.15585    0.91378   1.00
H2       0.56494    0.20200    0.93498   1.00
H2       0.44745    0.19094    0.94573   1.00
H2       0.54385    0.15493    0.93494   1.00
H2       0.38042    0.27341    0.91495   1.00
H2       0.61383    0.11179    0.86090   1.00
H2       0.37025    0.24021    0.95292   1.00
H2       0.62149    0.11165    0.91178   1.00
H2       0.41739    0.26030    0.94838   1.00
H2       0.57502    0.10037    0.89283   1.00
C4       0.25230    0.01975    0.74580   1.00
C4       0.25166    -0.02191   0.74439   1.00
C3       0.28473    0.04103    0.76080   1.00
C3       0.28484    -0.04504   0.75401   1.00
C3       0.21950    0.04146    0.73185   1.00
C3       0.21675    -0.04170   0.73293   1.00
C2       0.25445    0.10405    0.74690   1.00
C2       0.24981    -0.10622   0.74341   1.00
C3       0.28592    0.08189    0.76118   1.00
C3       0.28397    -0.08591   0.75375   1.00
C3       0.22197    0.08304    0.73255   1.00
C3       0.21700    -0.08336   0.73325   1.00
H1       0.30854    0.02763    0.77237   1.00
H1       0.31102    -0.03306   0.76120   1.00
C5       0.18536    0.02165    0.71793   1.00
C5       0.18291    -0.01998   0.72135   1.00
H1       0.31022    0.09549    0.77224   1.00
H1       0.30884    -0.10091   0.76114   1.00
H1       0.19934    0.09948    0.72264   1.00
H1       0.19266    -0.09848   0.72554   1.00
C6       0.15262    0.04485    0.69944   1.00
C6       0.14498    -0.04119   0.71332   1.00
H2       0.16507    0.06655    0.67981   1.00
H2       0.14037    -0.06310   0.73589   1.00
H2       0.13556    0.02714    0.67941   1.00
H2       0.11986    -0.02228   0.71752   1.00
C6       0.12451    0.06394    0.73007   1.00
C6       0.14304    -0.05942   0.67141   1.00
H2       0.14165    0.07708    0.75355   1.00
H2       0.17071    -0.07383   0.66475   1.00
C6       0.09505    0.09541    0.71496   1.00
C6       0.10939    -0.08911   0.66285   1.00
H2       0.10790    0.04051    0.74391   1.00
H2       0.14080    -0.03546   0.65050   1.00
C6       0.11632    0.13265    0.70046   1.00
C6       0.11401    -0.12708   0.68706   1.00
C6       0.06896    0.07926    0.68176   1.00
C6       0.06875    -0.07107   0.67101   1.00
C6       0.06807    0.10755    0.74928   1.00
C6       0.11106    -0.10054   0.61903   1.00
H2       0.13549    0.14442    0.72304   1.00
H2       0.14269    -0.14020   0.68243   1.00
H2       0.13402    0.12670    0.67475   1.00
H2       0.11072    -0.12154   0.71817   1.00
H2       0.09551    0.15541    0.69254   1.00
H2       0.09203    -0.14863   0.67892   1.00
H2       0.04671    0.10045    0.67336   1.00
H2       0.04545    -0.09098   0.66232   1.00
H2       0.08622    0.07275    0.65585   1.00
H2       0.06502    -0.06494   0.70200   1.00
H2       0.05427    0.05255    0.69094   1.00
H2       0.06506    -0.04385   0.65493   1.00
H2       0.08505    0.11958    0.77341   1.00
H2       0.13910    -0.11383   0.61179   1.00
H2       0.04708    0.12975    0.74021   1.00
H2       0.08822    -0.12149   0.61165   1.00
H2       0.05162    0.08261    0.76030   1.00
H2       0.10717    -0.07502   0.60037   1.00
C4       0.24580    0.25230    0.51975   1.00
C4       0.24439    0.25166    0.47809   1.00
C3       0.26080    0.28473    0.54103   1.00
C3       0.25401    0.28484    0.45496   1.00
C3       0.23185    0.21950    0.54146   1.00
C3       0.23293    0.21675    0.45830   1.00
C2       0.24690    0.25445    0.60405   1.00
C2       0.24341    0.24981    0.39378   1.00
C3       0.26118    0.28592    0.58189   1.00
C3       0.25375    0.28397    0.41409   1.00
C3       0.23255    0.22197    0.58304   1.00
C3       0.23325    0.21700    0.41664   1.00
H1       0.27237    0.30854    0.52763   1.00
H1       0.26120    0.31102    0.46694   1.00
C5       0.21793    0.18536    0.52165   1.00
C5       0.22135    0.18291    0.48002   1.00
H1       0.27224    0.31022    0.59549   1.00
H1       0.26114    0.30884    0.39909   1.00
H1       0.22264    0.19934    0.59948   1.00
H1       0.22554    0.19266    0.40152   1.00
C6       0.19944    0.15262    0.54485   1.00
C6       0.21332    0.14498    0.45881   1.00
H2       0.17981    0.16507    0.56655   1.00
H2       0.23589    0.14037    0.43690   1.00
H2       0.17941    0.13556    0.52714   1.00
H2       0.21752    0.11986    0.47772   1.00
C6       0.23007    0.12451    0.56394   1.00
C6       0.17141    0.14304    0.44058   1.00
H2       0.25355    0.14165    0.57708   1.00
H2       0.16475    0.17071    0.42617   1.00
C6       0.21496    0.09505    0.59541   1.00
C6       0.16285    0.10939    0.41089   1.00
H2       0.24391    0.10790    0.54051   1.00
H2       0.15050    0.14080    0.46454   1.00
C6       0.20046    0.11632    0.63265   1.00
C6       0.18706    0.11401    0.37292   1.00
C6       0.18176    0.06896    0.57926   1.00
C6       0.17101    0.06875    0.42893   1.00
C6       0.24928    0.06807    0.60755   1.00
C6       0.11903    0.11106    0.39946   1.00
H2       0.22304    0.13549    0.64442   1.00
H2       0.18243    0.14269    0.35980   1.00
H2       0.17475    0.13402    0.62670   1.00
H2       0.21817    0.11072    0.37846   1.00
H2       0.19254    0.09551    0.65541   1.00
H2       0.17892    0.09203    0.35137   1.00
H2       0.17336    0.04671    0.60045   1.00
H2       0.16232    0.04545    0.40902   1.00
H2       0.15585    0.08622    0.57275   1.00
H2       0.20200    0.06502    0.43506   1.00
H2       0.19094    0.05427    0.55255   1.00
H2       0.15493    0.06506    0.45615   1.00
H2       0.27341    0.08505    0.61958   1.00
H2       0.11179    0.13910    0.38617   1.00
H2       0.24021    0.04708    0.62975   1.00
H2       0.11165    0.08822    0.37851   1.00
H2       0.26030    0.05162    0.58261   1.00
H2       0.10037    0.10717    0.42498   1.00
C4       0.24580    0.74770    0.48025   1.00
C4       0.24439    0.74834    0.52191   1.00
C3       0.26080    0.71527    0.45897   1.00
C3       0.25401    0.71516    0.54504   1.00
C3       0.23185    0.78050    0.45854   1.00
C3       0.23293    0.78325    0.54170   1.00
C2       0.24690    0.74555    0.39595   1.00
C2       0.24341    0.75019    0.60622   1.00
C3       0.26118    0.71408    0.41811   1.00
C3       0.25375    0.71603    0.58591   1.00
C3       0.23255    0.77803    0.41696   1.00
C3       0.23325    0.78300    0.58336   1.00
H1       0.27237    0.69146    0.47237   1.00
H1       0.26120    0.68898    0.53306   1.00
C5       0.21793    0.81464    0.47835   1.00
C5       0.22135    0.81709    0.51998   1.00
H1       0.27224    0.68978    0.40451   1.00
H1       0.26114    0.69116    0.60091   1.00
H1       0.22264    0.80066    0.40052   1.00
H1       0.22554    0.80734    0.59848   1.00
C6       0.19944    0.84738    0.45515   1.00
C6       0.21332    0.85502    0.54119   1.00
H2       0.17981    0.83493    0.43345   1.00
H2       0.23589    0.85963    0.56310   1.00
H2       0.17941    0.86444    0.47286   1.00
H2       0.21752    0.88014    0.52228   1.00
C6       0.23007    0.87549    0.43606   1.00
C6       0.17141    0.85696    0.55942   1.00
H2       0.25355    0.85835    0.42292   1.00
H2       0.16475    0.82929    0.57383   1.00
C6       0.21496    0.90495    0.40459   1.00
C6       0.16285    0.89061    0.58911   1.00
H2       0.24391    0.89210    0.45949   1.00
H2       0.15050    0.85920    0.53546   1.00
C6       0.20046    0.88368    0.36735   1.00
C6       0.18706    0.88599    0.62708   1.00
C6       0.18176    0.93104    0.42074   1.00
C6       0.17101    0.93125    0.57107   1.00
C6       0.24928    0.93193    0.39245   1.00
C6       0.11903    0.88894    0.60054   1.00
H2       0.22304    0.86451    0.35558   1.00
H2       0.18243    0.85731    0.64020   1.00
H2       0.17475    0.86598    0.37330   1.00
H2       0.21817    0.88928    0.62154   1.00
H2       0.19254    0.90449    0.34459   1.00
H2       0.17892    0.90797    0.64863   1.00
H2       0.17336    0.95329    0.39955   1.00
H2       0.16232    0.95455    0.59098   1.00
H2       0.15585    0.91378    0.42725   1.00
H2       0.20200    0.93498    0.56494   1.00
H2       0.19094    0.94573    0.44745   1.00
H2       0.15493    0.93494    0.54385   1.00
H2       0.27341    0.91495    0.38042   1.00
H2       0.11179    0.86090    0.61383   1.00
H2       0.24021    0.95292    0.37025   1.00
H2       0.11165    0.91178    0.62149   1.00
H2       0.26030    0.94838    0.41739   1.00
H2       0.10037    0.89283    0.57502   1.00
C4       0.24770    0.98025    0.24580   1.00
C4       0.24834    1.02191    0.24439   1.00
C3       0.21527    0.95897    0.26080   1.00
C3       0.21516    1.04504    0.25401   1.00
C3       0.28050    0.95854    0.23185   1.00
C3       0.28325    1.04170    0.23293   1.00
C2       0.24555    0.89595    0.24690   1.00
C2       0.25019    1.10622    0.24341   1.00
C3       0.21408    0.91811    0.26118   1.00
C3       0.21603    1.08591    0.25375   1.00
C3       0.27803    0.91696    0.23255   1.00
C3       0.28300    1.08336    0.23325   1.00
H1       0.19146    0.97237    0.27237   1.00
H1       0.18898    1.03306    0.26120   1.00
C5       0.31464    0.97835    0.21793   1.00
C5       0.31709    1.01998    0.22135   1.00
H1       0.18978    0.90451    0.27224   1.00
H1       0.19116    1.10091    0.26114   1.00
H1       0.30066    0.90052    0.22264   1.00
H1       0.30734    1.09848    0.22554   1.00
C6       0.34738    0.95515    0.19944   1.00
C6       0.35502    1.04119    0.21332   1.00
H2       0.33493    0.93345    0.17981   1.00
H2       0.35963    1.06310    0.23589   1.00
H2       0.36444    0.97286    0.17941   1.00
H2       0.38014    1.02228    0.21752   1.00
C6       0.37549    0.93606    0.23007   1.00
C6       0.35696    1.05942    0.17141   1.00
H2       0.35835    0.92292    0.25355   1.00
H2       0.32929    1.07383    0.16475   1.00
C6       0.40495    0.90459    0.21496   1.00
C6       0.39061    1.08911    0.16285   1.00
H2       0.39210    0.95949    0.24391   1.00
H2       0.35920    1.03546    0.15050   1.00
C6       0.38368    0.86735    0.20046   1.00
C6       0.38599    1.12708    0.18706   1.00
C6       0.43104    0.92074    0.18176   1.00
C6       0.43125    1.07107    0.17101   1.00
C6       0.43193    0.89245    0.24928   1.00
C6       0.38894    1.10054    0.11903   1.00
H2       0.36451    0.85558    0.22304   1.00
H2       0.35731    1.14020    0.18243   1.00
H2       0.36598    0.87330    0.17475   1.00
H2       0.38928    1.12154    0.21817   1.00
H2       0.40449    0.84459    0.19254   1.00
H2       0.40797    1.14863    0.17892   1.00
H2       0.45329    0.89955    0.17336   1.00
H2       0.45455    1.09098    0.16232   1.00
H2       0.41378    0.92725    0.15585   1.00
H2       0.43498    1.06494    0.20200   1.00
H2       0.44573    0.94745    0.19094   1.00
H2       0.43494    1.04385    0.15493   1.00
H2       0.41495    0.88042    0.27341   1.00
H2       0.36090    1.11383    0.11179   1.00
H2       0.45292    0.87025    0.24021   1.00
H2       0.41178    1.12149    0.11165   1.00
H2       0.44838    0.91739    0.26030   1.00
H2       0.39283    1.07502    0.10037   1.00
C4       0.01975    0.74580    0.25230   1.00
C4       -0.02191   0.74439    0.25166   1.00
C3       0.04103    0.76080    0.28473   1.00
C3       -0.04504   0.75401    0.28484   1.00
C3       0.04146    0.73185    0.21950   1.00
C3       -0.04170   0.73293    0.21675   1.00
C2       0.10405    0.74690    0.25445   1.00
C2       -0.10622   0.74341    0.24981   1.00
C3       0.08189    0.76118    0.28592   1.00
C3       -0.08591   0.75375    0.28397   1.00
C3       0.08304    0.73255    0.22197   1.00
C3       -0.08336   0.73325    0.21700   1.00
H1       0.02763    0.77237    0.30854   1.00
H1       -0.03306   0.76120    0.31102   1.00
C5       0.02165    0.71793    0.18536   1.00
C5       -0.01998   0.72135    0.18291   1.00
H1       0.09549    0.77224    0.31022   1.00
H1       -0.10091   0.76114    0.30884   1.00
H1       0.09948    0.72264    0.19934   1.00
H1       -0.09848   0.72554    0.19266   1.00
C6       0.04485    0.69944    0.15262   1.00
C6       -0.04119   0.71332    0.14498   1.00
H2       0.06655    0.67981    0.16507   1.00
H2       -0.06310   0.73589    0.14037   1.00
H2       0.02714    0.67941    0.13556   1.00
H2       -0.02228   0.71752    0.11986   1.00
C6       0.06394    0.73007    0.12451   1.00
C6       -0.05942   0.67141    0.14304   1.00
H2       0.07708    0.75355    0.14165   1.00
H2       -0.07383   0.66475    0.17071   1.00
C6       0.09541    0.71496    0.09505   1.00
C6       -0.08911   0.66285    0.10939   1.00
H2       0.04051    0.74391    0.10790   1.00
H2       -0.03546   0.65050    0.14080   1.00
C6       0.13265    0.70046    0.11632   1.00
C6       -0.12708   0.68706    0.11401   1.00
C6       0.07926    0.68176    0.06896   1.00
C6       -0.07107   0.67101    0.06875   1.00
C6       0.10755    0.74928    0.06807   1.00
C6       -0.10054   0.61903    0.11106   1.00
H2       0.14442    0.72304    0.13549   1.00
H2       -0.14020   0.68243    0.14269   1.00
H2       0.12670    0.67475    0.13402   1.00
H2       -0.12154   0.71817    0.11072   1.00
H2       0.15541    0.69254    0.09551   1.00
H2       -0.14863   0.67892    0.09203   1.00
H2       0.10045    0.67336    0.04671   1.00
H2       -0.09098   0.66232    0.04545   1.00
H2       0.07275    0.65585    0.08622   1.00
H2       -0.06494   0.70200    0.06502   1.00
H2       0.05255    0.69094    0.05427   1.00
H2       -0.04385   0.65493    0.06506   1.00
H2       0.11958    0.77341    0.08505   1.00
H2       -0.11383   0.61179    0.13910   1.00
H2       0.12975    0.74021    0.04708   1.00
H2       -0.12149   0.61165    0.08822   1.00
H2       0.08261    0.76030    0.05162   1.00
H2       -0.07502   0.60037    0.10717   1.00
C4       0.48025    0.74580    0.24770   1.00
C4       0.52191    0.74439    0.24834   1.00
C3       0.45897    0.76080    0.21527   1.00
C3       0.54504    0.75401    0.21516   1.00
C3       0.45854    0.73185    0.28050   1.00
C3       0.54170    0.73293    0.28325   1.00
C2       0.39595    0.74690    0.24555   1.00
C2       0.60622    0.74341    0.25019   1.00
C3       0.41811    0.76118    0.21408   1.00
C3       0.58591    0.75375    0.21603   1.00
C3       0.41696    0.73255    0.27803   1.00
C3       0.58336    0.73325    0.28300   1.00
H1       0.47237    0.77237    0.19146   1.00
H1       0.53306    0.76120    0.18898   1.00
C5       0.47835    0.71793    0.31464   1.00
C5       0.51998    0.72135    0.31709   1.00
H1       0.40451    0.77224    0.18978   1.00
H1       0.60091    0.76114    0.19116   1.00
H1       0.40052    0.72264    0.30066   1.00
H1       0.59848    0.72554    0.30734   1.00
C6       0.45515    0.69944    0.34738   1.00
C6       0.54119    0.71332    0.35502   1.00
H2       0.43345    0.67981    0.33493   1.00
H2       0.56310    0.73589    0.35963   1.00
H2       0.47286    0.67941    0.36444   1.00
H2       0.52228    0.71752    0.38014   1.00
C6       0.43606    0.73007    0.37549   1.00
C6       0.55942    0.67141    0.35696   1.00
H2       0.42292    0.75355    0.35835   1.00
H2       0.57383    0.66475    0.32929   1.00
C6       0.40459    0.71496    0.40495   1.00
C6       0.58911    0.66285    0.39061   1.00
H2       0.45949    0.74391    0.39210   1.00
H2       0.53546    0.65050    0.35920   1.00
C6       0.36735    0.70046    0.38368   1.00
C6       0.62708    0.68706    0.38599   1.00
C6       0.42074    0.68176    0.43104   1.00
C6       0.57107    0.67101    0.43125   1.00
C6       0.39245    0.74928    0.43193   1.00
C6       0.60054    0.61903    0.38894   1.00
H2       0.35558    0.72304    0.36451   1.00
H2       0.64020    0.68243    0.35731   1.00
H2       0.37330    0.67475    0.36598   1.00
H2       0.62154    0.71817    0.38928   1.00
H2       0.34459    0.69254    0.40449   1.00
H2       0.64863    0.67892    0.40797   1.00
H2       0.39955    0.67336    0.45329   1.00
H2       0.59098    0.66232    0.45455   1.00
H2       0.42725    0.65585    0.41378   1.00
H2       0.56494    0.70200    0.43498   1.00
H2       0.44745    0.69094    0.44573   1.00
H2       0.54385    0.65493    0.43494   1.00
H2       0.38042    0.77341    0.41495   1.00
H2       0.61383    0.61179    0.36090   1.00
H2       0.37025    0.74021    0.45292   1.00
H2       0.62149    0.61165    0.41178   1.00
H2       0.41739    0.76030    0.44838   1.00
H2       0.57502    0.60037    0.39283   1.00
C4       0.25230    0.51975    0.24580   1.00
C4       0.25166    0.47809    0.24439   1.00
C3       0.28473    0.54103    0.26080   1.00
C3       0.28484    0.45496    0.25401   1.00
C3       0.21950    0.54146    0.23185   1.00
C3       0.21675    0.45830    0.23293   1.00
C2       0.25445    0.60405    0.24690   1.00
C2       0.24981    0.39378    0.24341   1.00
C3       0.28592    0.58189    0.26118   1.00
C3       0.28397    0.41409    0.25375   1.00
C3       0.22197    0.58304    0.23255   1.00
C3       0.21700    0.41664    0.23325   1.00
H1       0.30854    0.52763    0.27237   1.00
H1       0.31102    0.46694    0.26120   1.00
C5       0.18536    0.52165    0.21793   1.00
C5       0.18291    0.48002    0.22135   1.00
H1       0.31022    0.59549    0.27224   1.00
H1       0.30884    0.39909    0.26114   1.00
H1       0.19934    0.59948    0.22264   1.00
H1       0.19266    0.40152    0.22554   1.00
C6       0.15262    0.54485    0.19944   1.00
C6       0.14498    0.45881    0.21332   1.00
H2       0.16507    0.56655    0.17981   1.00
H2       0.14037    0.43690    0.23589   1.00
H2       0.13556    0.52714    0.17941   1.00
H2       0.11986    0.47772    0.21752   1.00
C6       0.12451    0.56394    0.23007   1.00
C6       0.14304    0.44058    0.17141   1.00
H2       0.14165    0.57708    0.25355   1.00
H2       0.17071    0.42617    0.16475   1.00
C6       0.09505    0.59541    0.21496   1.00
C6       0.10939    0.41089    0.16285   1.00
H2       0.10790    0.54051    0.24391   1.00
H2       0.14080    0.46454    0.15050   1.00
C6       0.11632    0.63265    0.20046   1.00
C6       0.11401    0.37292    0.18706   1.00
C6       0.06896    0.57926    0.18176   1.00
C6       0.06875    0.42893    0.17101   1.00
C6       0.06807    0.60755    0.24928   1.00
C6       0.11106    0.39946    0.11903   1.00
H2       0.13549    0.64442    0.22304   1.00
H2       0.14269    0.35980    0.18243   1.00
H2       0.13402    0.62670    0.17475   1.00
H2       0.11072    0.37846    0.21817   1.00
H2       0.09551    0.65541    0.19254   1.00
H2       0.09203    0.35137    0.17892   1.00
H2       0.04671    0.60045    0.17336   1.00
H2       0.04545    0.40902    0.16232   1.00
H2       0.08622    0.57275    0.15585   1.00
H2       0.06502    0.43506    0.20200   1.00
H2       0.05427    0.55255    0.19094   1.00
H2       0.06506    0.45615    0.15493   1.00
H2       0.08505    0.61958    0.27341   1.00
H2       0.13910    0.38617    0.11179   1.00
H2       0.04708    0.62975    0.24021   1.00
H2       0.08822    0.37851    0.11165   1.00
H2       0.05162    0.58261    0.26030   1.00
H2       0.10717    0.42498    0.10037   1.00
C4       0.24580    0.75230    0.01975   1.00
C4       0.24439    0.75166    -0.02191   1.00
C3       0.26080    0.78473    0.04103   1.00
C3       0.25401    0.78484    -0.04504   1.00
C3       0.23185    0.71950    0.04146   1.00
C3       0.23293    0.71675    -0.04170   1.00
C2       0.24690    0.75445    0.10405   1.00
C2       0.24341    0.74981    -0.10622   1.00
C3       0.26118    0.78592    0.08189   1.00
C3       0.25375    0.78397    -0.08591   1.00
C3       0.23255    0.72197    0.08304   1.00
C3       0.23325    0.71700    -0.08336   1.00
H1       0.27237    0.80854    0.02763   1.00
H1       0.26120    0.81102    -0.03306   1.00
C5       0.21793    0.68536    0.02165   1.00
C5       0.22135    0.68291    -0.01998   1.00
H1       0.27224    0.81022    0.09549   1.00
H1       0.26114    0.80884    -0.10091   1.00
H1       0.22264    0.69934    0.09948   1.00
H1       0.22554    0.69266    -0.09848   1.00
C6       0.19944    0.65262    0.04485   1.00
C6       0.21332    0.64498    -0.04119   1.00
H2       0.17981    0.66507    0.06655   1.00
H2       0.23589    0.64037    -0.06310   1.00
H2       0.17941    0.63556    0.02714   1.00
H2       0.21752    0.61986    -0.02228   1.00
C6       0.23007    0.62451    0.06394   1.00
C6       0.17141    0.64304    -0.05942   1.00
H2       0.25355    0.64165    0.07708   1.00
H2       0.16475    0.67071    -0.07383   1.00
C6       0.21496    0.59505    0.09541   1.00
C6       0.16285    0.60939    -0.08911   1.00
H2       0.24391    0.60790    0.04051   1.00
H2       0.15050    0.64080    -0.03546   1.00
C6       0.20046    0.61632    0.13265   1.00
C6       0.18706    0.61401    -0.12708   1.00
C6       0.18176    0.56896    0.07926   1.00
C6       0.17101    0.56875    -0.07107   1.00
C6       0.24928    0.56807    0.10755   1.00
C6       0.11903    0.61106    -0.10054   1.00
H2       0.22304    0.63549    0.14442   1.00
H2       0.18243    0.64269    -0.14020   1.00
H2       0.17475    0.63402    0.12670   1.00
H2       0.21817    0.61072    -0.12154   1.00
H2       0.19254    0.59551    0.15541   1.00
H2       0.17892    0.59203    -0.14863   1.00
H2       0.17336    0.54671    0.10045   1.00
H2       0.16232    0.54545    -0.09098   1.00
H2       0.15585    0.58622    0.07275   1.00
H2       0.20200    0.56502    -0.06494   1.00
H2       0.19094    0.55427    0.05255   1.00
H2       0.15493    0.56506    -0.04385   1.00
H2       0.27341    0.58505    0.11958   1.00
H2       0.11179    0.63910    -0.11383   1.00
H2       0.24021    0.54708    0.12975   1.00
H2       0.11165    0.58822    -0.12149   1.00
H2       0.26030    0.55162    0.08261   1.00
H2       0.10037    0.60717    -0.07502   1.00
C4       0.74580    0.24770    0.48025   1.00
C4       0.74439    0.24834    0.52191   1.00
C3       0.76080    0.21527    0.45897   1.00
C3       0.75401    0.21516    0.54504   1.00
C3       0.73185    0.28050    0.45854   1.00
C3       0.73293    0.28325    0.54170   1.00
C2       0.74690    0.24555    0.39595   1.00
C2       0.74341    0.25019    0.60622   1.00
C3       0.76118    0.21408    0.41811   1.00
C3       0.75375    0.21603    0.58591   1.00
C3       0.73255    0.27803    0.41696   1.00
C3       0.73325    0.28300    0.58336   1.00
H1       0.77237    0.19146    0.47237   1.00
H1       0.76120    0.18898    0.53306   1.00
C5       0.71793    0.31464    0.47835   1.00
C5       0.72135    0.31709    0.51998   1.00
H1       0.77224    0.18978    0.40451   1.00
H1       0.76114    0.19116    0.60091   1.00
H1       0.72264    0.30066    0.40052   1.00
H1       0.72554    0.30734    0.59848   1.00
C6       0.69944    0.34738    0.45515   1.00
C6       0.71332    0.35502    0.54119   1.00
H2       0.67981    0.33493    0.43345   1.00
H2       0.73589    0.35963    0.56310   1.00
H2       0.67941    0.36444    0.47286   1.00
H2       0.71752    0.38014    0.52228   1.00
C6       0.73007    0.37549    0.43606   1.00
C6       0.67141    0.35696    0.55942   1.00
H2       0.75355    0.35835    0.42292   1.00
H2       0.66475    0.32929    0.57383   1.00
C6       0.71496    0.40495    0.40459   1.00
C6       0.66285    0.39061    0.58911   1.00
H2       0.74391    0.39210    0.45949   1.00
H2       0.65050    0.35920    0.53546   1.00
C6       0.70046    0.38368    0.36735   1.00
C6       0.68706    0.38599    0.62708   1.00
C6       0.68176    0.43104    0.42074   1.00
C6       0.67101    0.43125    0.57107   1.00
C6       0.74928    0.43193    0.39245   1.00
C6       0.61903    0.38894    0.60054   1.00
H2       0.72304    0.36451    0.35558   1.00
H2       0.68243    0.35731    0.64020   1.00
H2       0.67475    0.36598    0.37330   1.00
H2       0.71817    0.38928    0.62154   1.00
H2       0.69254    0.40449    0.34459   1.00
H2       0.67892    0.40797    0.64863   1.00
H2       0.67336    0.45329    0.39955   1.00
H2       0.66232    0.45455    0.59098   1.00
H2       0.65585    0.41378    0.42725   1.00
H2       0.70200    0.43498    0.56494   1.00
H2       0.69094    0.44573    0.44745   1.00
H2       0.65493    0.43494    0.54385   1.00
H2       0.77341    0.41495    0.38042   1.00
H2       0.61179    0.36090    0.61383   1.00
H2       0.74021    0.45292    0.37025   1.00
H2       0.61165    0.41178    0.62149   1.00
H2       0.76030    0.44838    0.41739   1.00
H2       0.60037    0.39283    0.57502   1.00
C4       0.74770    0.48025    0.24580   1.00
C4       0.74834    0.52191    0.24439   1.00
C3       0.71527    0.45897    0.26080   1.00
C3       0.71516    0.54504    0.25401   1.00
C3       0.78050    0.45854    0.23185   1.00
C3       0.78325    0.54170    0.23293   1.00
C2       0.74555    0.39595    0.24690   1.00
C2       0.75019    0.60622    0.24341   1.00
C3       0.71408    0.41811    0.26118   1.00
C3       0.71603    0.58591    0.25375   1.00
C3       0.77803    0.41696    0.23255   1.00
C3       0.78300    0.58336    0.23325   1.00
H1       0.69146    0.47237    0.27237   1.00
H1       0.68898    0.53306    0.26120   1.00
C5       0.81464    0.47835    0.21793   1.00
C5       0.81709    0.51998    0.22135   1.00
H1       0.68978    0.40451    0.27224   1.00
H1       0.69116    0.60091    0.26114   1.00
H1       0.80066    0.40052    0.22264   1.00
H1       0.80734    0.59848    0.22554   1.00
C6       0.84738    0.45515    0.19944   1.00
C6       0.85502    0.54119    0.21332   1.00
H2       0.83493    0.43345    0.17981   1.00
H2       0.85963    0.56310    0.23589   1.00
H2       0.86444    0.47286    0.17941   1.00
H2       0.88014    0.52228    0.21752   1.00
C6       0.87549    0.43606    0.23007   1.00
C6       0.85696    0.55942    0.17141   1.00
H2       0.85835    0.42292    0.25355   1.00
H2       0.82929    0.57383    0.16475   1.00
C6       0.90495    0.40459    0.21496   1.00
C6       0.89061    0.58911    0.16285   1.00
H2       0.89210    0.45949    0.24391   1.00
H2       0.85920    0.53546    0.15050   1.00
C6       0.88368    0.36735    0.20046   1.00
C6       0.88599    0.62708    0.18706   1.00
C6       0.93104    0.42074    0.18176   1.00
C6       0.93125    0.57107    0.17101   1.00
C6       0.93193    0.39245    0.24928   1.00
C6       0.88894    0.60054    0.11903   1.00
H2       0.86451    0.35558    0.22304   1.00
H2       0.85731    0.64020    0.18243   1.00
H2       0.86598    0.37330    0.17475   1.00
H2       0.88928    0.62154    0.21817   1.00
H2       0.90449    0.34459    0.19254   1.00
H2       0.90797    0.64863    0.17892   1.00
H2       0.95329    0.39955    0.17336   1.00
H2       0.95455    0.59098    0.16232   1.00
H2       0.91378    0.42725    0.15585   1.00
H2       0.93498    0.56494    0.20200   1.00
H2       0.94573    0.44745    0.19094   1.00
H2       0.93494    0.54385    0.15493   1.00
H2       0.91495    0.38042    0.27341   1.00
H2       0.86090    0.61383    0.11179   1.00
H2       0.95292    0.37025    0.24021   1.00
H2       0.91178    0.62149    0.11165   1.00
H2       0.94838    0.41739    0.26030   1.00
H2       0.89283    0.57502    0.10037   1.00
C4       0.51975    0.24580    0.25230   1.00
C4       0.47809    0.24439    0.25166   1.00
C3       0.54103    0.26080    0.28473   1.00
C3       0.45496    0.25401    0.28484   1.00
C3       0.54146    0.23185    0.21950   1.00
C3       0.45830    0.23293    0.21675   1.00
C2       0.60405    0.24690    0.25445   1.00
C2       0.39378    0.24341    0.24981   1.00
C3       0.58189    0.26118    0.28592   1.00
C3       0.41409    0.25375    0.28397   1.00
C3       0.58304    0.23255    0.22197   1.00
C3       0.41664    0.23325    0.21700   1.00
H1       0.52763    0.27237    0.30854   1.00
H1       0.46694    0.26120    0.31102   1.00
C5       0.52165    0.21793    0.18536   1.00
C5       0.48002    0.22135    0.18291   1.00
H1       0.59549    0.27224    0.31022   1.00
H1       0.39909    0.26114    0.30884   1.00
H1       0.59948    0.22264    0.19934   1.00
H1       0.40152    0.22554    0.19266   1.00
C6       0.54485    0.19944    0.15262   1.00
C6       0.45881    0.21332    0.14498   1.00
H2       0.56655    0.17981    0.16507   1.00
H2       0.43690    0.23589    0.14037   1.00
H2       0.52714    0.17941    0.13556   1.00
H2       0.47772    0.21752    0.11986   1.00
C6       0.56394    0.23007    0.12451   1.00
C6       0.44058    0.17141    0.14304   1.00
H2       0.57708    0.25355    0.14165   1.00
H2       0.42617    0.16475    0.17071   1.00
C6       0.59541    0.21496    0.09505   1.00
C6       0.41089    0.16285    0.10939   1.00
H2       0.54051    0.24391    0.10790   1.00
H2       0.46454    0.15050    0.14080   1.00
C6       0.63265    0.20046    0.11632   1.00
C6       0.37292    0.18706    0.11401   1.00
C6       0.57926    0.18176    0.06896   1.00
C6       0.42893    0.17101    0.06875   1.00
C6       0.60755    0.24928    0.06807   1.00
C6       0.39946    0.11903    0.11106   1.00
H2       0.64442    0.22304    0.13549   1.00
H2       0.35980    0.18243    0.14269   1.00
H2       0.62670    0.17475    0.13402   1.00
H2       0.37846    0.21817    0.11072   1.00
H2       0.65541    0.19254    0.09551   1.00
H2       0.35137    0.17892    0.09203   1.00
H2       0.60045    0.17336    0.04671   1.00
H2       0.40902    0.16232    0.04545   1.00
H2       0.57275    0.15585    0.08622   1.00
H2       0.43506    0.20200    0.06502   1.00
H2       0.55255    0.19094    0.05427   1.00
H2       0.45615    0.15493    0.06506   1.00
H2       0.61958    0.27341    0.08505   1.00
H2       0.38617    0.11179    0.13910   1.00
H2       0.62975    0.24021    0.04708   1.00
H2       0.37851    0.11165    0.08822   1.00
H2       0.58261    0.26030    0.05162   1.00
H2       0.42498    0.10037    0.10717   1.00
C4       0.98025    0.24580    0.24770   1.00
C4       1.02191    0.24439    0.24834   1.00
C3       0.95897    0.26080    0.21527   1.00
C3       1.04504    0.25401    0.21516   1.00
C3       0.95854    0.23185    0.28050   1.00
C3       1.04170    0.23293    0.28325   1.00
C2       0.89595    0.24690    0.24555   1.00
C2       1.10622    0.24341    0.25019   1.00
C3       0.91811    0.26118    0.21408   1.00
C3       1.08591    0.25375    0.21603   1.00
C3       0.91696    0.23255    0.27803   1.00
C3       1.08336    0.23325    0.28300   1.00
H1       0.97237    0.27237    0.19146   1.00
H1       1.03306    0.26120    0.18898   1.00
C5       0.97835    0.21793    0.31464   1.00
C5       1.01998    0.22135    0.31709   1.00
H1       0.90451    0.27224    0.18978   1.00
H1       1.10091    0.26114    0.19116   1.00
H1       0.90052    0.22264    0.30066   1.00
H1       1.09848    0.22554    0.30734   1.00
C6       0.95515    0.19944    0.34738   1.00
C6       1.04119    0.21332    0.35502   1.00
H2       0.93345    0.17981    0.33493   1.00
H2       1.06310    0.23589    0.35963   1.00
H2       0.97286    0.17941    0.36444   1.00
H2       1.02228    0.21752    0.38014   1.00
C6       0.93606    0.23007    0.37549   1.00
C6       1.05942    0.17141    0.35696   1.00
H2       0.92292    0.25355    0.35835   1.00
H2       1.07383    0.16475    0.32929   1.00
C6       0.90459    0.21496    0.40495   1.00
C6       1.08911    0.16285    0.39061   1.00
H2       0.95949    0.24391    0.39210   1.00
H2       1.03546    0.15050    0.35920   1.00
C6       0.86735    0.20046    0.38368   1.00
C6       1.12708    0.18706    0.38599   1.00
C6       0.92074    0.18176    0.43104   1.00
C6       1.07107    0.17101    0.43125   1.00
C6       0.89245    0.24928    0.43193   1.00
C6       1.10054    0.11903    0.38894   1.00
H2       0.85558    0.22304    0.36451   1.00
H2       1.14020    0.18243    0.35731   1.00
H2       0.87330    0.17475    0.36598   1.00
H2       1.12154    0.21817    0.38928   1.00
H2       0.84459    0.19254    0.40449   1.00
H2       1.14863    0.17892    0.40797   1.00
H2       0.89955    0.17336    0.45329   1.00
H2       1.09098    0.16232    0.45455   1.00
H2       0.92725    0.15585    0.41378   1.00
H2       1.06494    0.20200    0.43498   1.00
H2       0.94745    0.19094    0.44573   1.00
H2       1.04385    0.15493    0.43494   1.00
H2       0.88042    0.27341    0.41495   1.00
H2       1.11383    0.11179    0.36090   1.00
H2       0.87025    0.24021    0.45292   1.00
H2       1.12149    0.11165    0.41178   1.00
H2       0.91739    0.26030    0.44838   1.00
H2       1.07502    0.10037    0.39283   1.00
C4       0.75230    0.01975    0.24580   1.00
C4       0.75166    -0.02191   0.24439   1.00
C3       0.78473    0.04103    0.26080   1.00
C3       0.78484    -0.04504   0.25401   1.00
C3       0.71950    0.04146    0.23185   1.00
C3       0.71675    -0.04170   0.23293   1.00
C2       0.75445    0.10405    0.24690   1.00
C2       0.74981    -0.10622   0.24341   1.00
C3       0.78592    0.08189    0.26118   1.00
C3       0.78397    -0.08591   0.25375   1.00
C3       0.72197    0.08304    0.23255   1.00
C3       0.71700    -0.08336   0.23325   1.00
H1       0.80854    0.02763    0.27237   1.00
H1       0.81102    -0.03306   0.26120   1.00
C5       0.68536    0.02165    0.21793   1.00
C5       0.68291    -0.01998   0.22135   1.00
H1       0.81022    0.09549    0.27224   1.00
H1       0.80884    -0.10091   0.26114   1.00
H1       0.69934    0.09948    0.22264   1.00
H1       0.69266    -0.09848   0.22554   1.00
C6       0.65262    0.04485    0.19944   1.00
C6       0.64498    -0.04119   0.21332   1.00
H2       0.66507    0.06655    0.17981   1.00
H2       0.64037    -0.06310   0.23589   1.00
H2       0.63556    0.02714    0.17941   1.00
H2       0.61986    -0.02228   0.21752   1.00
C6       0.62451    0.06394    0.23007   1.00
C6       0.64304    -0.05942   0.17141   1.00
H2       0.64165    0.07708    0.25355   1.00
H2       0.67071    -0.07383   0.16475   1.00
C6       0.59505    0.09541    0.21496   1.00
C6       0.60939    -0.08911   0.16285   1.00
H2       0.60790    0.04051    0.24391   1.00
H2       0.64080    -0.03546   0.15050   1.00
C6       0.61632    0.13265    0.20046   1.00
C6       0.61401    -0.12708   0.18706   1.00
C6       0.56896    0.07926    0.18176   1.00
C6       0.56875    -0.07107   0.17101   1.00
C6       0.56807    0.10755    0.24928   1.00
C6       0.61106    -0.10054   0.11903   1.00
H2       0.63549    0.14442    0.22304   1.00
H2       0.64269    -0.14020   0.18243   1.00
H2       0.63402    0.12670    0.17475   1.00
H2       0.61072    -0.12154   0.21817   1.00
H2       0.59551    0.15541    0.19254   1.00
H2       0.59203    -0.14863   0.17892   1.00
H2       0.54671    0.10045    0.17336   1.00
H2       0.54545    -0.09098   0.16232   1.00
H2       0.58622    0.07275    0.15585   1.00
H2       0.56502    -0.06494   0.20200   1.00
H2       0.55427    0.05255    0.19094   1.00
H2       0.56506    -0.04385   0.15493   1.00
H2       0.58505    0.11958    0.27341   1.00
H2       0.63910    -0.11383   0.11179   1.00
H2       0.54708    0.12975    0.24021   1.00
H2       0.58822    -0.12149   0.11165   1.00
H2       0.55162    0.08261    0.26030   1.00
H2       0.60717    -0.07502   0.10037   1.00
C4       0.74580    0.25230    0.01975   1.00
C4       0.74439    0.25166    -0.02191   1.00
C3       0.76080    0.28473    0.04103   1.00
C3       0.75401    0.28484    -0.04504   1.00
C3       0.73185    0.21950    0.04146   1.00
C3       0.73293    0.21675    -0.04170   1.00
C2       0.74690    0.25445    0.10405   1.00
C2       0.74341    0.24981    -0.10622   1.00
C3       0.76118    0.28592    0.08189   1.00
C3       0.75375    0.28397    -0.08591   1.00
C3       0.73255    0.22197    0.08304   1.00
C3       0.73325    0.21700    -0.08336   1.00
H1       0.77237    0.30854    0.02763   1.00
H1       0.76120    0.31102    -0.03306   1.00
C5       0.71793    0.18536    0.02165   1.00
C5       0.72135    0.18291    -0.01998   1.00
H1       0.77224    0.31022    0.09549   1.00
H1       0.76114    0.30884    -0.10091   1.00
H1       0.72264    0.19934    0.09948   1.00
H1       0.72554    0.19266    -0.09848   1.00
C6       0.69944    0.15262    0.04485   1.00
C6       0.71332    0.14498    -0.04119   1.00
H2       0.67981    0.16507    0.06655   1.00
H2       0.73589    0.14037    -0.06310   1.00
H2       0.67941    0.13556    0.02714   1.00
H2       0.71752    0.11986    -0.02228   1.00
C6       0.73007    0.12451    0.06394   1.00
C6       0.67141    0.14304    -0.05942   1.00
H2       0.75355    0.14165    0.07708   1.00
H2       0.66475    0.17071    -0.07383   1.00
C6       0.71496    0.09505    0.09541   1.00
C6       0.66285    0.10939    -0.08911   1.00
H2       0.74391    0.10790    0.04051   1.00
H2       0.65050    0.14080    -0.03546   1.00
C6       0.70046    0.11632    0.13265   1.00
C6       0.68706    0.11401    -0.12708   1.00
C6       0.68176    0.06896    0.07926   1.00
C6       0.67101    0.06875    -0.07107   1.00
C6       0.74928    0.06807    0.10755   1.00
C6       0.61903    0.11106    -0.10054   1.00
H2       0.72304    0.13549    0.14442   1.00
H2       0.68243    0.14269    -0.14020   1.00
H2       0.67475    0.13402    0.12670   1.00
H2       0.71817    0.11072    -0.12154   1.00
H2       0.69254    0.09551    0.15541   1.00
H2       0.67892    0.09203    -0.14863   1.00
H2       0.67336    0.04671    0.10045   1.00
H2       0.66232    0.04545    -0.09098   1.00
H2       0.65585    0.08622    0.07275   1.00
H2       0.70200    0.06502    -0.06494   1.00
H2       0.69094    0.05427    0.05255   1.00
H2       0.65493    0.06506    -0.04385   1.00
H2       0.77341    0.08505    0.11958   1.00
H2       0.61179    0.13910    -0.11383   1.00
H2       0.74021    0.04708    0.12975   1.00
H2       0.61165    0.08822    -0.12149   1.00
H2       0.76030    0.05162    0.08261   1.00
H2       0.60037    0.10717    -0.07502   1.00
