data_IRMOF10_SG202_Ligand10_label_o.

_audit_creation_method             'generated by an auxiliary program of Tobunporous'

_symmetry_space_group_name_H-M     'P 1'
_symmetry_Int_Tables_number        1
_symmetry_cell_setting             triclinic

_cell_length_a                    34.2800
_cell_length_b                    34.2800
_cell_length_c                    34.2800
_cell_angle_alpha                 90.0000
_cell_angle_beta                  90.0000
_cell_angle_gamma                 90.0000

loop_
_atom_site_label
_atom_site_fract_x
_atom_site_fract_y
_atom_site_fract_z
_atom_site_occupancy
O1       0.75000    0.75000    0.75000   1.00
Zn1      0.71720    0.78280    0.78280   1.00
Zn1      0.78280    0.71720    0.78280   1.00
Zn1      0.78280    0.78280    0.71720   1.00
Zn1      0.71720    0.71720    0.71720   1.00
O2       0.72650    0.77350    0.83820   1.00
O2       0.72650    0.83820    0.77350   1.00
O2       0.66180    0.77350    0.77350   1.00
O2       0.77350    0.72650    0.83820   1.00
O2       0.83820    0.72650    0.77350   1.00
O2       0.77350    0.66180    0.77350   1.00
O2       0.77350    0.83820    0.72650   1.00
O2       0.83820    0.77350    0.72650   1.00
O2       0.77350    0.77350    0.66180   1.00
O2       0.66180    0.72650    0.72650   1.00
O2       0.72650    0.66180    0.72650   1.00
O2       0.72650    0.72650    0.66180   1.00
C1       0.75000    0.75000    0.85520   1.00
C1       0.75000    0.85520    0.75000   1.00
C1       0.64480    0.75000    0.75000   1.00
C1       0.85520    0.75000    0.75000   1.00
C1       0.75000    0.64480    0.75000   1.00
C1       0.75000    0.75000    0.64480   1.00
O1       0.25000    0.25000    0.75000   1.00
Zn1      0.21720    0.28280    0.78280   1.00
Zn1      0.28280    0.21720    0.78280   1.00
Zn1      0.28280    0.28280    0.71720   1.00
Zn1      0.21720    0.21720    0.71720   1.00
O2       0.22650    0.27350    0.83820   1.00
O2       0.22650    0.33820    0.77350   1.00
O2       0.16180    0.27350    0.77350   1.00
O2       0.27350    0.22650    0.83820   1.00
O2       0.33820    0.22650    0.77350   1.00
O2       0.27350    0.16180    0.77350   1.00
O2       0.27350    0.33820    0.72650   1.00
O2       0.33820    0.27350    0.72650   1.00
O2       0.27350    0.27350    0.66180   1.00
O2       0.16180    0.22650    0.72650   1.00
O2       0.22650    0.16180    0.72650   1.00
O2       0.22650    0.22650    0.66180   1.00
C1       0.25000    0.25000    0.85520   1.00
C1       0.25000    0.35520    0.75000   1.00
C1       0.14480    0.25000    0.75000   1.00
C1       0.35520    0.25000    0.75000   1.00
C1       0.25000    0.14480    0.75000   1.00
C1       0.25000    0.25000    0.64480   1.00
O1       0.25000    0.75000    0.25000   1.00
Zn1      0.21720    0.78280    0.28280   1.00
Zn1      0.28280    0.71720    0.28280   1.00
Zn1      0.28280    0.78280    0.21720   1.00
Zn1      0.21720    0.71720    0.21720   1.00
O2       0.22650    0.77350    0.33820   1.00
O2       0.22650    0.83820    0.27350   1.00
O2       0.16180    0.77350    0.27350   1.00
O2       0.27350    0.72650    0.33820   1.00
O2       0.33820    0.72650    0.27350   1.00
O2       0.27350    0.66180    0.27350   1.00
O2       0.27350    0.83820    0.22650   1.00
O2       0.33820    0.77350    0.22650   1.00
O2       0.27350    0.77350    0.16180   1.00
O2       0.16180    0.72650    0.22650   1.00
O2       0.22650    0.66180    0.22650   1.00
O2       0.22650    0.72650    0.16180   1.00
C1       0.25000    0.75000    0.35520   1.00
C1       0.25000    0.85520    0.25000   1.00
C1       0.14480    0.75000    0.25000   1.00
C1       0.35520    0.75000    0.25000   1.00
C1       0.25000    0.64480    0.25000   1.00
C1       0.25000    0.75000    0.14480   1.00
O1       0.75000    0.25000    0.25000   1.00
Zn1      0.71720    0.28280    0.28280   1.00
Zn1      0.78280    0.21720    0.28280   1.00
Zn1      0.78280    0.28280    0.21720   1.00
Zn1      0.71720    0.21720    0.21720   1.00
O2       0.72650    0.27350    0.33820   1.00
O2       0.72650    0.33820    0.27350   1.00
O2       0.66180    0.27350    0.27350   1.00
O2       0.77350    0.22650    0.33820   1.00
O2       0.83820    0.22650    0.27350   1.00
O2       0.77350    0.16180    0.27350   1.00
O2       0.77350    0.33820    0.22650   1.00
O2       0.83820    0.27350    0.22650   1.00
O2       0.77350    0.27350    0.16180   1.00
O2       0.66180    0.22650    0.22650   1.00
O2       0.72650    0.16180    0.22650   1.00
O2       0.72650    0.22650    0.16180   1.00
C1       0.75000    0.25000    0.35520   1.00
C1       0.75000    0.35520    0.25000   1.00
C1       0.64480    0.25000    0.25000   1.00
C1       0.85520    0.25000    0.25000   1.00
C1       0.75000    0.14480    0.25000   1.00
C1       0.75000    0.25000    0.14480   1.00
O1       0.25000    0.25000    0.25000   1.00
Zn1      0.28280    0.21720    0.21720   1.00
Zn1      0.21720    0.28280    0.21720   1.00
Zn1      0.21720    0.21720    0.28280   1.00
Zn1      0.28280    0.28280    0.28280   1.00
O2       0.27350    0.22650    0.16180   1.00
O2       0.27350    0.16180    0.22650   1.00
O2       0.33820    0.22650    0.22650   1.00
O2       0.22650    0.27350    0.16180   1.00
O2       0.16180    0.27350    0.22650   1.00
O2       0.22650    0.33820    0.22650   1.00
O2       0.22650    0.16180    0.27350   1.00
O2       0.16180    0.22650    0.27350   1.00
O2       0.22650    0.22650    0.33820   1.00
O2       0.33820    0.27350    0.27350   1.00
O2       0.27350    0.33820    0.27350   1.00
O2       0.27350    0.27350    0.33820   1.00
C1       0.25000    0.25000    0.14480   1.00
C1       0.25000    0.14480    0.25000   1.00
C1       0.35520    0.25000    0.25000   1.00
C1       0.14480    0.25000    0.25000   1.00
C1       0.25000    0.35520    0.25000   1.00
C1       0.25000    0.25000    0.35520   1.00
O1       0.75000    0.75000    0.25000   1.00
Zn1      0.78280    0.71720    0.21720   1.00
Zn1      0.71720    0.78280    0.21720   1.00
Zn1      0.71720    0.71720    0.28280   1.00
Zn1      0.78280    0.78280    0.28280   1.00
O2       0.77350    0.72650    0.16180   1.00
O2       0.77350    0.66180    0.22650   1.00
O2       0.83820    0.72650    0.22650   1.00
O2       0.72650    0.77350    0.16180   1.00
O2       0.66180    0.77350    0.22650   1.00
O2       0.72650    0.83820    0.22650   1.00
O2       0.72650    0.66180    0.27350   1.00
O2       0.66180    0.72650    0.27350   1.00
O2       0.72650    0.72650    0.33820   1.00
O2       0.83820    0.77350    0.27350   1.00
O2       0.77350    0.83820    0.27350   1.00
O2       0.77350    0.77350    0.33820   1.00
C1       0.75000    0.75000    0.14480   1.00
C1       0.75000    0.64480    0.25000   1.00
C1       0.85520    0.75000    0.25000   1.00
C1       0.64480    0.75000    0.25000   1.00
C1       0.75000    0.85520    0.25000   1.00
C1       0.75000    0.75000    0.35520   1.00
O1       0.75000    0.25000    0.75000   1.00
Zn1      0.78280    0.21720    0.71720   1.00
Zn1      0.71720    0.28280    0.71720   1.00
Zn1      0.71720    0.21720    0.78280   1.00
Zn1      0.78280    0.28280    0.78280   1.00
O2       0.77350    0.22650    0.66180   1.00
O2       0.77350    0.16180    0.72650   1.00
O2       0.83820    0.22650    0.72650   1.00
O2       0.72650    0.27350    0.66180   1.00
O2       0.66180    0.27350    0.72650   1.00
O2       0.72650    0.33820    0.72650   1.00
O2       0.72650    0.16180    0.77350   1.00
O2       0.66180    0.22650    0.77350   1.00
O2       0.72650    0.22650    0.83820   1.00
O2       0.83820    0.27350    0.77350   1.00
O2       0.77350    0.33820    0.77350   1.00
O2       0.77350    0.27350    0.83820   1.00
C1       0.75000    0.25000    0.64480   1.00
C1       0.75000    0.14480    0.75000   1.00
C1       0.85520    0.25000    0.75000   1.00
C1       0.64480    0.25000    0.75000   1.00
C1       0.75000    0.35520    0.75000   1.00
C1       0.75000    0.25000    0.85520   1.00
O1       0.25000    0.75000    0.75000   1.00
Zn1      0.28280    0.71720    0.71720   1.00
Zn1      0.21720    0.78280    0.71720   1.00
Zn1      0.21720    0.71720    0.78280   1.00
Zn1      0.28280    0.78280    0.78280   1.00
O2       0.27350    0.72650    0.66180   1.00
O2       0.27350    0.66180    0.72650   1.00
O2       0.33820    0.72650    0.72650   1.00
O2       0.22650    0.77350    0.66180   1.00
O2       0.16180    0.77350    0.72650   1.00
O2       0.22650    0.83820    0.72650   1.00
O2       0.22650    0.66180    0.77350   1.00
O2       0.16180    0.72650    0.77350   1.00
O2       0.22650    0.72650    0.83820   1.00
O2       0.33820    0.77350    0.77350   1.00
O2       0.27350    0.83820    0.77350   1.00
O2       0.27350    0.77350    0.83820   1.00
C1       0.25000    0.75000    0.64480   1.00
C1       0.25000    0.64480    0.75000   1.00
C1       0.35520    0.75000    0.75000   1.00
C1       0.14480    0.75000    0.75000   1.00
C1       0.25000    0.85520    0.75000   1.00
C1       0.25000    0.75000    0.85520   1.00
C4       0.75013    0.74964    0.97915   1.00
C4       0.74987    0.75036    1.02085   1.00
C3       0.72398    0.72610    0.95751   1.00
C3       0.71474    0.74961    1.04252   1.00
C3       0.77615    0.77321    0.95738   1.00
C3       0.78498    0.75097    1.04259   1.00
C2       0.74985    0.74994    0.89482   1.00
C2       0.74985    0.74994    1.10518   1.00
C3a      0.72373    0.72613    0.91599   1.00
C3       0.71481    0.74942    1.08382   1.00
C3       0.77595    0.77332    0.91611   1.00
C3a      0.78518    0.75079    1.08403   1.00
H1       0.70381    0.70733    0.97294   1.00
H1       0.68695    0.74953    1.02750   1.00
C5       0.69557    0.70054    0.89410   1.00
H1       0.68729    0.74889    1.09933   1.00
H1       0.79612    0.79200    0.90056   1.00
C5       0.82357    0.75151    1.10535   1.00
H1       0.81269    0.75044    1.02747   1.00
H1       0.79634    0.79238    0.97230   1.00
H2       0.83876    0.77931    1.09837   1.00
H2       0.81910    0.75086    1.13747   1.00
N1       0.84767    0.71818    1.09395   1.00
C6       0.86206    0.71104    1.05810   1.00
C6       0.85984    0.68922    1.11757   1.00
C6       0.88354    0.67701    1.05873   1.00
C6       0.88212    0.66313    1.09656   1.00
H3       0.85735    0.72940    1.03281   1.00
H3       0.85285    0.68704    1.14831   1.00
H3       0.89861    0.66380    1.03436   1.00
H3       0.89581    0.63694    1.10758   1.00
H2       0.69965    0.70526    0.86228   1.00
H2       0.70125    0.66917    0.90001   1.00
N1       0.65550    0.70971    0.90523   1.00
C6       0.62517    0.72373    0.88078   1.00
C6       0.63850    0.70625    0.94285   1.00
C6       0.59175    0.72848    0.90277   1.00
C6       0.59994    0.71776    0.94091   1.00
H3       0.62808    0.72976    0.84992   1.00
H3       0.65373    0.69652    0.96876   1.00
H3       0.56396    0.73886    0.89205   1.00
H3       0.57965    0.71839    0.96505   1.00
C4       0.74964    0.97915    0.75013   1.00
C4       0.75036    1.02085    0.74987   1.00
C3       0.72610    0.95751    0.72398   1.00
C3       0.74961    1.04252    0.71474   1.00
C3       0.77321    0.95738    0.77615   1.00
C3       0.75097    1.04259    0.78498   1.00
C2       0.74994    0.89482    0.74985   1.00
C2       0.74994    1.10518    0.74985   1.00
C3a      0.72613    0.91599    0.72373   1.00
C3       0.74942    1.08382    0.71481   1.00
C3       0.77332    0.91611    0.77595   1.00
C3a      0.75079    1.08403    0.78518   1.00
H1       0.70733    0.97294    0.70381   1.00
H1       0.74953    1.02750    0.68695   1.00
C5       0.70054    0.89410    0.69557   1.00
H1       0.74889    1.09933    0.68729   1.00
H1       0.79200    0.90056    0.79612   1.00
C5       0.75151    1.10535    0.82357   1.00
H1       0.75044    1.02747    0.81269   1.00
H1       0.79238    0.97230    0.79634   1.00
H2       0.77931    1.09837    0.83876   1.00
H2       0.75086    1.13747    0.81910   1.00
N1       0.71818    1.09395    0.84767   1.00
C6       0.71104    1.05810    0.86206   1.00
C6       0.68922    1.11757    0.85984   1.00
C6       0.67701    1.05873    0.88354   1.00
C6       0.66313    1.09656    0.88212   1.00
H3       0.72940    1.03281    0.85735   1.00
H3       0.68704    1.14831    0.85285   1.00
H3       0.66380    1.03436    0.89861   1.00
H3       0.63694    1.10758    0.89581   1.00
H2       0.70526    0.86228    0.69965   1.00
H2       0.66917    0.90001    0.70125   1.00
N1       0.70971    0.90523    0.65550   1.00
C6       0.72373    0.88078    0.62517   1.00
C6       0.70625    0.94285    0.63850   1.00
C6       0.72848    0.90277    0.59175   1.00
C6       0.71776    0.94091    0.59994   1.00
H3       0.72976    0.84992    0.62808   1.00
H3       0.69652    0.96876    0.65373   1.00
H3       0.73886    0.89205    0.56396   1.00
H3       0.71839    0.96505    0.57965   1.00
C4       0.52085    0.75013    0.75036   1.00
C4       0.47915    0.74987    0.74964   1.00
C3       0.54249    0.72398    0.77390   1.00
C3       0.45748    0.71474    0.75039   1.00
C3       0.54262    0.77615    0.72679   1.00
C3       0.45741    0.78498    0.74903   1.00
C2       0.60518    0.74985    0.75006   1.00
C2       0.39482    0.74985    0.75006   1.00
C3a      0.58401    0.72373    0.77387   1.00
C3       0.41618    0.71481    0.75058   1.00
C3       0.58389    0.77595    0.72668   1.00
C3a      0.41597    0.78518    0.74921   1.00
H1       0.52706    0.70381    0.79267   1.00
H1       0.47250    0.68695    0.75047   1.00
C5       0.60590    0.69557    0.79946   1.00
H1       0.40067    0.68729    0.75111   1.00
H1       0.59944    0.79612    0.70800   1.00
C5       0.39465    0.82357    0.74849   1.00
H1       0.47253    0.81269    0.74956   1.00
H1       0.52770    0.79634    0.70762   1.00
H2       0.40163    0.83876    0.72069   1.00
H2       0.36253    0.81910    0.74914   1.00
N1       0.40605    0.84767    0.78182   1.00
C6       0.44190    0.86206    0.78896   1.00
C6       0.38243    0.85984    0.81078   1.00
C6       0.44127    0.88354    0.82299   1.00
C6       0.40344    0.88212    0.83687   1.00
H3       0.46719    0.85735    0.77060   1.00
H3       0.35169    0.85285    0.81296   1.00
H3       0.46564    0.89861    0.83620   1.00
H3       0.39242    0.89581    0.86306   1.00
H2       0.63772    0.69965    0.79474   1.00
H2       0.59999    0.70125    0.83083   1.00
N1       0.59477    0.65550    0.79029   1.00
C6       0.61922    0.62517    0.77627   1.00
C6       0.55715    0.63850    0.79375   1.00
C6       0.59723    0.59175    0.77152   1.00
C6       0.55909    0.59994    0.78224   1.00
H3       0.65008    0.62808    0.77024   1.00
H3       0.53124    0.65373    0.80348   1.00
H3       0.60795    0.56396    0.76114   1.00
H3       0.53495    0.57965    0.78161   1.00
C4       0.97915    0.75013    0.74964   1.00
C4       1.02085    0.74987    0.75036   1.00
C3       0.95751    0.72398    0.72610   1.00
C3       1.04252    0.71474    0.74961   1.00
C3       0.95738    0.77615    0.77321   1.00
C3       1.04259    0.78498    0.75097   1.00
C2       0.89482    0.74985    0.74994   1.00
C2       1.10518    0.74985    0.74994   1.00
C3a      0.91599    0.72373    0.72613   1.00
C3       1.08382    0.71481    0.74942   1.00
C3       0.91611    0.77595    0.77332   1.00
C3a      1.08403    0.78518    0.75079   1.00
H1       0.97294    0.70381    0.70733   1.00
H1       1.02750    0.68695    0.74953   1.00
C5       0.89410    0.69557    0.70054   1.00
H1       1.09933    0.68729    0.74889   1.00
H1       0.90056    0.79612    0.79200   1.00
C5       1.10535    0.82357    0.75151   1.00
H1       1.02747    0.81269    0.75044   1.00
H1       0.97230    0.79634    0.79238   1.00
H2       1.09837    0.83876    0.77931   1.00
H2       1.13747    0.81910    0.75086   1.00
N1       1.09395    0.84767    0.71818   1.00
C6       1.05810    0.86206    0.71104   1.00
C6       1.11757    0.85984    0.68922   1.00
C6       1.05873    0.88354    0.67701   1.00
C6       1.09656    0.88212    0.66313   1.00
H3       1.03281    0.85735    0.72940   1.00
H3       1.14831    0.85285    0.68704   1.00
H3       1.03436    0.89861    0.66380   1.00
H3       1.10758    0.89581    0.63694   1.00
H2       0.86228    0.69965    0.70526   1.00
H2       0.90001    0.70125    0.66917   1.00
N1       0.90523    0.65550    0.70971   1.00
C6       0.88078    0.62517    0.72373   1.00
C6       0.94285    0.63850    0.70625   1.00
C6       0.90277    0.59175    0.72848   1.00
C6       0.94091    0.59994    0.71776   1.00
H3       0.84992    0.62808    0.72976   1.00
H3       0.96876    0.65373    0.69652   1.00
H3       0.89205    0.56396    0.73886   1.00
H3       0.96505    0.57965    0.71839   1.00
C4       0.75036    0.52085    0.75013   1.00
C4       0.74964    0.47915    0.74987   1.00
C3       0.77390    0.54249    0.72398   1.00
C3       0.75039    0.45748    0.71474   1.00
C3       0.72679    0.54262    0.77615   1.00
C3       0.74903    0.45741    0.78498   1.00
C2       0.75006    0.60518    0.74985   1.00
C2       0.75006    0.39482    0.74985   1.00
C3a      0.77387    0.58401    0.72373   1.00
C3       0.75058    0.41618    0.71481   1.00
C3       0.72668    0.58389    0.77595   1.00
C3a      0.74921    0.41597    0.78518   1.00
H1       0.79267    0.52706    0.70381   1.00
H1       0.75047    0.47250    0.68695   1.00
C5       0.79946    0.60590    0.69557   1.00
H1       0.75111    0.40067    0.68729   1.00
H1       0.70800    0.59944    0.79612   1.00
C5       0.74849    0.39465    0.82357   1.00
H1       0.74956    0.47253    0.81269   1.00
H1       0.70762    0.52770    0.79634   1.00
H2       0.72069    0.40163    0.83876   1.00
H2       0.74914    0.36253    0.81910   1.00
N1       0.78182    0.40605    0.84767   1.00
C6       0.78896    0.44190    0.86206   1.00
C6       0.81078    0.38243    0.85984   1.00
C6       0.82299    0.44127    0.88354   1.00
C6       0.83687    0.40344    0.88212   1.00
H3       0.77060    0.46719    0.85735   1.00
H3       0.81296    0.35169    0.85285   1.00
H3       0.83620    0.46564    0.89861   1.00
H3       0.86306    0.39242    0.89581   1.00
H2       0.79474    0.63772    0.69965   1.00
H2       0.83083    0.59999    0.70125   1.00
N1       0.79029    0.59477    0.65550   1.00
C6       0.77627    0.61922    0.62517   1.00
C6       0.79375    0.55715    0.63850   1.00
C6       0.77152    0.59723    0.59175   1.00
C6       0.78224    0.55909    0.59994   1.00
H3       0.77024    0.65008    0.62808   1.00
H3       0.80348    0.53124    0.65373   1.00
H3       0.76114    0.60795    0.56396   1.00
H3       0.78161    0.53495    0.57965   1.00
C4       0.75013    0.75036    0.52085   1.00
C4       0.74987    0.74964    0.47915   1.00
C3       0.72398    0.77390    0.54249   1.00
C3       0.71474    0.75039    0.45748   1.00
C3       0.77615    0.72679    0.54262   1.00
C3       0.78498    0.74903    0.45741   1.00
C2       0.74985    0.75006    0.60518   1.00
C2       0.74985    0.75006    0.39482   1.00
C3a      0.72373    0.77387    0.58401   1.00
C3       0.71481    0.75058    0.41618   1.00
C3       0.77595    0.72668    0.58389   1.00
C3a      0.78518    0.74921    0.41597   1.00
H1       0.70381    0.79267    0.52706   1.00
H1       0.68695    0.75047    0.47250   1.00
C5       0.69557    0.79946    0.60590   1.00
H1       0.68729    0.75111    0.40067   1.00
H1       0.79612    0.70800    0.59944   1.00
C5       0.82357    0.74849    0.39465   1.00
H1       0.81269    0.74956    0.47253   1.00
H1       0.79634    0.70762    0.52770   1.00
H2       0.83876    0.72069    0.40163   1.00
H2       0.81910    0.74914    0.36253   1.00
N1       0.84767    0.78182    0.40605   1.00
C6       0.86206    0.78896    0.44190   1.00
C6       0.85984    0.81078    0.38243   1.00
C6       0.88354    0.82299    0.44127   1.00
C6       0.88212    0.83687    0.40344   1.00
H3       0.85735    0.77060    0.46719   1.00
H3       0.85285    0.81296    0.35169   1.00
H3       0.89861    0.83620    0.46564   1.00
H3       0.89581    0.86306    0.39242   1.00
H2       0.69965    0.79474    0.63772   1.00
H2       0.70125    0.83083    0.59999   1.00
N1       0.65550    0.79029    0.59477   1.00
C6       0.62517    0.77627    0.61922   1.00
C6       0.63850    0.79375    0.55715   1.00
C6       0.59175    0.77152    0.59723   1.00
C6       0.59994    0.78224    0.55909   1.00
H3       0.62808    0.77024    0.65008   1.00
H3       0.65373    0.80348    0.53124   1.00
H3       0.56396    0.76114    0.60795   1.00
H3       0.57965    0.78161    0.53495   1.00
C4       0.25013    0.24964    0.97915   1.00
C4       0.24987    0.25036    1.02085   1.00
C3       0.22398    0.22610    0.95751   1.00
C3       0.21474    0.24961    1.04252   1.00
C3       0.27615    0.27321    0.95738   1.00
C3       0.28498    0.25097    1.04259   1.00
C2       0.24985    0.24994    0.89482   1.00
C2       0.24985    0.24994    1.10518   1.00
C3a      0.22373    0.22613    0.91599   1.00
C3       0.21481    0.24942    1.08382   1.00
C3       0.27595    0.27332    0.91611   1.00
C3a      0.28518    0.25079    1.08403   1.00
H1       0.20381    0.20733    0.97294   1.00
H1       0.18695    0.24953    1.02750   1.00
C5       0.19557    0.20054    0.89410   1.00
H1       0.18729    0.24889    1.09933   1.00
H1       0.29612    0.29200    0.90056   1.00
C5       0.32357    0.25151    1.10535   1.00
H1       0.31269    0.25044    1.02747   1.00
H1       0.29634    0.29238    0.97230   1.00
H2       0.33876    0.27931    1.09837   1.00
H2       0.31910    0.25086    1.13747   1.00
N1       0.34767    0.21818    1.09395   1.00
C6       0.36206    0.21104    1.05810   1.00
C6       0.35984    0.18922    1.11757   1.00
C6       0.38354    0.17701    1.05873   1.00
C6       0.38212    0.16313    1.09656   1.00
H3       0.35735    0.22940    1.03281   1.00
H3       0.35285    0.18704    1.14831   1.00
H3       0.39861    0.16380    1.03436   1.00
H3       0.39581    0.13694    1.10758   1.00
H2       0.19965    0.20526    0.86228   1.00
H2       0.20125    0.16917    0.90001   1.00
N1       0.15550    0.20971    0.90523   1.00
C6       0.12517    0.22373    0.88078   1.00
C6       0.13850    0.20625    0.94285   1.00
C6       0.09175    0.22848    0.90277   1.00
C6       0.09994    0.21776    0.94091   1.00
H3       0.12808    0.22976    0.84992   1.00
H3       0.15373    0.19652    0.96876   1.00
H3       0.06396    0.23886    0.89205   1.00
H3       0.07965    0.21839    0.96505   1.00
C4       0.24964    0.47915    0.75013   1.00
C4       0.25036    0.52085    0.74987   1.00
C3       0.22610    0.45751    0.72398   1.00
C3       0.24961    0.54252    0.71474   1.00
C3       0.27321    0.45738    0.77615   1.00
C3       0.25097    0.54259    0.78498   1.00
C2       0.24994    0.39482    0.74985   1.00
C2       0.24994    0.60518    0.74985   1.00
C3a      0.22613    0.41599    0.72373   1.00
C3       0.24942    0.58382    0.71481   1.00
C3       0.27332    0.41611    0.77595   1.00
C3a      0.25079    0.58403    0.78518   1.00
H1       0.20733    0.47294    0.70381   1.00
H1       0.24953    0.52750    0.68695   1.00
C5       0.20054    0.39410    0.69557   1.00
H1       0.24889    0.59933    0.68729   1.00
H1       0.29200    0.40056    0.79612   1.00
C5       0.25151    0.60535    0.82357   1.00
H1       0.25044    0.52747    0.81269   1.00
H1       0.29238    0.47230    0.79634   1.00
H2       0.27931    0.59837    0.83876   1.00
H2       0.25086    0.63747    0.81910   1.00
N1       0.21818    0.59395    0.84767   1.00
C6       0.21104    0.55810    0.86206   1.00
C6       0.18922    0.61757    0.85984   1.00
C6       0.17701    0.55873    0.88354   1.00
C6       0.16313    0.59656    0.88212   1.00
H3       0.22940    0.53281    0.85735   1.00
H3       0.18704    0.64831    0.85285   1.00
H3       0.16380    0.53436    0.89861   1.00
H3       0.13694    0.60758    0.89581   1.00
H2       0.20526    0.36228    0.69965   1.00
H2       0.16917    0.40001    0.70125   1.00
N1       0.20971    0.40523    0.65550   1.00
C6       0.22373    0.38078    0.62517   1.00
C6       0.20625    0.44285    0.63850   1.00
C6       0.22848    0.40277    0.59175   1.00
C6       0.21776    0.44091    0.59994   1.00
H3       0.22976    0.34992    0.62808   1.00
H3       0.19652    0.46876    0.65373   1.00
H3       0.23886    0.39205    0.56396   1.00
H3       0.21839    0.46505    0.57965   1.00
C4       0.02085    0.25013    0.75036   1.00
C4       -0.02085   0.24987    0.74964   1.00
C3       0.04249    0.22398    0.77390   1.00
C3       -0.04252   0.21474    0.75039   1.00
C3       0.04262    0.27615    0.72679   1.00
C3       -0.04259   0.28498    0.74903   1.00
C2       0.10518    0.24985    0.75006   1.00
C2       -0.10518   0.24985    0.75006   1.00
C3a      0.08401    0.22373    0.77387   1.00
C3       -0.08382   0.21481    0.75058   1.00
C3       0.08389    0.27595    0.72668   1.00
C3a      -0.08403   0.28518    0.74921   1.00
H1       0.02706    0.20381    0.79267   1.00
H1       -0.02750   0.18695    0.75047   1.00
C5       0.10590    0.19557    0.79946   1.00
H1       -0.09933   0.18729    0.75111   1.00
H1       0.09944    0.29612    0.70800   1.00
C5       -0.10535   0.32357    0.74849   1.00
H1       -0.02747   0.31269    0.74956   1.00
H1       0.02770    0.29634    0.70762   1.00
H2       -0.09837   0.33876    0.72069   1.00
H2       -0.13747   0.31910    0.74914   1.00
N1       -0.09395   0.34767    0.78182   1.00
C6       -0.05810   0.36206    0.78896   1.00
C6       -0.11757   0.35984    0.81078   1.00
C6       -0.05873   0.38354    0.82299   1.00
C6       -0.09656   0.38212    0.83687   1.00
H3       -0.03281   0.35735    0.77060   1.00
H3       -0.14831   0.35285    0.81296   1.00
H3       -0.03436   0.39861    0.83620   1.00
H3       -0.10758   0.39581    0.86306   1.00
H2       0.13772    0.19965    0.79474   1.00
H2       0.09999    0.20125    0.83083   1.00
N1       0.09477    0.15550    0.79029   1.00
C6       0.11922    0.12517    0.77627   1.00
C6       0.05715    0.13850    0.79375   1.00
C6       0.09723    0.09175    0.77152   1.00
C6       0.05909    0.09994    0.78224   1.00
H3       0.15008    0.12808    0.77024   1.00
H3       0.03124    0.15373    0.80348   1.00
H3       0.10795    0.06396    0.76114   1.00
H3       0.03495    0.07965    0.78161   1.00
C4       0.47915    0.25013    0.74964   1.00
C4       0.52085    0.24987    0.75036   1.00
C3       0.45751    0.22398    0.72610   1.00
C3       0.54252    0.21474    0.74961   1.00
C3       0.45738    0.27615    0.77321   1.00
C3       0.54259    0.28498    0.75097   1.00
C2       0.39482    0.24985    0.74994   1.00
C2       0.60518    0.24985    0.74994   1.00
C3a      0.41599    0.22373    0.72613   1.00
C3       0.58382    0.21481    0.74942   1.00
C3       0.41611    0.27595    0.77332   1.00
C3a      0.58403    0.28518    0.75079   1.00
H1       0.47294    0.20381    0.70733   1.00
H1       0.52750    0.18695    0.74953   1.00
C5       0.39410    0.19557    0.70054   1.00
H1       0.59933    0.18729    0.74889   1.00
H1       0.40056    0.29612    0.79200   1.00
C5       0.60535    0.32357    0.75151   1.00
H1       0.52747    0.31269    0.75044   1.00
H1       0.47230    0.29634    0.79238   1.00
H2       0.59837    0.33876    0.77931   1.00
H2       0.63747    0.31910    0.75086   1.00
N1       0.59395    0.34767    0.71818   1.00
C6       0.55810    0.36206    0.71104   1.00
C6       0.61757    0.35984    0.68922   1.00
C6       0.55873    0.38354    0.67701   1.00
C6       0.59656    0.38212    0.66313   1.00
H3       0.53281    0.35735    0.72940   1.00
H3       0.64831    0.35285    0.68704   1.00
H3       0.53436    0.39861    0.66380   1.00
H3       0.60758    0.39581    0.63694   1.00
H2       0.36228    0.19965    0.70526   1.00
H2       0.40001    0.20125    0.66917   1.00
N1       0.40523    0.15550    0.70971   1.00
C6       0.38078    0.12517    0.72373   1.00
C6       0.44285    0.13850    0.70625   1.00
C6       0.40277    0.09175    0.72848   1.00
C6       0.44091    0.09994    0.71776   1.00
H3       0.34992    0.12808    0.72976   1.00
H3       0.46876    0.15373    0.69652   1.00
H3       0.39205    0.06396    0.73886   1.00
H3       0.46505    0.07965    0.71839   1.00
C4       0.25036    0.02085    0.75013   1.00
C4       0.24964    -0.02085   0.74987   1.00
C3       0.27390    0.04249    0.72398   1.00
C3       0.25039    -0.04252   0.71474   1.00
C3       0.22679    0.04262    0.77615   1.00
C3       0.24903    -0.04259   0.78498   1.00
C2       0.25006    0.10518    0.74985   1.00
C2       0.25006    -0.10518   0.74985   1.00
C3a      0.27387    0.08401    0.72373   1.00
C3       0.25058    -0.08382   0.71481   1.00
C3       0.22668    0.08389    0.77595   1.00
C3a      0.24921    -0.08403   0.78518   1.00
H1       0.29267    0.02706    0.70381   1.00
H1       0.25047    -0.02750   0.68695   1.00
C5       0.29946    0.10590    0.69557   1.00
H1       0.25111    -0.09933   0.68729   1.00
H1       0.20800    0.09944    0.79612   1.00
C5       0.24849    -0.10535   0.82357   1.00
H1       0.24956    -0.02747   0.81269   1.00
H1       0.20762    0.02770    0.79634   1.00
H2       0.22069    -0.09837   0.83876   1.00
H2       0.24914    -0.13747   0.81910   1.00
N1       0.28182    -0.09395   0.84767   1.00
C6       0.28896    -0.05810   0.86206   1.00
C6       0.31078    -0.11757   0.85984   1.00
C6       0.32299    -0.05873   0.88354   1.00
C6       0.33687    -0.09656   0.88212   1.00
H3       0.27060    -0.03281   0.85735   1.00
H3       0.31296    -0.14831   0.85285   1.00
H3       0.33620    -0.03436   0.89861   1.00
H3       0.36306    -0.10758   0.89581   1.00
H2       0.29474    0.13772    0.69965   1.00
H2       0.33083    0.09999    0.70125   1.00
N1       0.29029    0.09477    0.65550   1.00
C6       0.27627    0.11922    0.62517   1.00
C6       0.29375    0.05715    0.63850   1.00
C6       0.27152    0.09723    0.59175   1.00
C6       0.28224    0.05909    0.59994   1.00
H3       0.27024    0.15008    0.62808   1.00
H3       0.30348    0.03124    0.65373   1.00
H3       0.26114    0.10795    0.56396   1.00
H3       0.28161    0.03495    0.57965   1.00
C4       0.25013    0.25036    0.52085   1.00
C4       0.24987    0.24964    0.47915   1.00
C3       0.22398    0.27390    0.54249   1.00
C3       0.21474    0.25039    0.45748   1.00
C3       0.27615    0.22679    0.54262   1.00
C3       0.28498    0.24903    0.45741   1.00
C2       0.24985    0.25006    0.60518   1.00
C2       0.24985    0.25006    0.39482   1.00
C3a      0.22373    0.27387    0.58401   1.00
C3       0.21481    0.25058    0.41618   1.00
C3       0.27595    0.22668    0.58389   1.00
C3a      0.28518    0.24921    0.41597   1.00
H1       0.20381    0.29267    0.52706   1.00
H1       0.18695    0.25047    0.47250   1.00
C5       0.19557    0.29946    0.60590   1.00
H1       0.18729    0.25111    0.40067   1.00
H1       0.29612    0.20800    0.59944   1.00
C5       0.32357    0.24849    0.39465   1.00
H1       0.31269    0.24956    0.47253   1.00
H1       0.29634    0.20762    0.52770   1.00
H2       0.33876    0.22069    0.40163   1.00
H2       0.31910    0.24914    0.36253   1.00
N1       0.34767    0.28182    0.40605   1.00
C6       0.36206    0.28896    0.44190   1.00
C6       0.35984    0.31078    0.38243   1.00
C6       0.38354    0.32299    0.44127   1.00
C6       0.38212    0.33687    0.40344   1.00
H3       0.35735    0.27060    0.46719   1.00
H3       0.35285    0.31296    0.35169   1.00
H3       0.39861    0.33620    0.46564   1.00
H3       0.39581    0.36306    0.39242   1.00
H2       0.19965    0.29474    0.63772   1.00
H2       0.20125    0.33083    0.59999   1.00
N1       0.15550    0.29029    0.59477   1.00
C6       0.12517    0.27627    0.61922   1.00
C6       0.13850    0.29375    0.55715   1.00
C6       0.09175    0.27152    0.59723   1.00
C6       0.09994    0.28224    0.55909   1.00
H3       0.12808    0.27024    0.65008   1.00
H3       0.15373    0.30348    0.53124   1.00
H3       0.06396    0.26114    0.60795   1.00
H3       0.07965    0.28161    0.53495   1.00
C4       0.25013    0.74964    0.47915   1.00
C4       0.24987    0.75036    0.52085   1.00
C3       0.22398    0.72610    0.45751   1.00
C3       0.21474    0.74961    0.54252   1.00
C3       0.27615    0.77321    0.45738   1.00
C3       0.28498    0.75097    0.54259   1.00
C2       0.24985    0.74994    0.39482   1.00
C2       0.24985    0.74994    0.60518   1.00
C3a      0.22373    0.72613    0.41599   1.00
C3       0.21481    0.74942    0.58382   1.00
C3       0.27595    0.77332    0.41611   1.00
C3a      0.28518    0.75079    0.58403   1.00
H1       0.20381    0.70733    0.47294   1.00
H1       0.18695    0.74953    0.52750   1.00
C5       0.19557    0.70054    0.39410   1.00
H1       0.18729    0.74889    0.59933   1.00
H1       0.29612    0.79200    0.40056   1.00
C5       0.32357    0.75151    0.60535   1.00
H1       0.31269    0.75044    0.52747   1.00
H1       0.29634    0.79238    0.47230   1.00
H2       0.33876    0.77931    0.59837   1.00
H2       0.31910    0.75086    0.63747   1.00
N1       0.34767    0.71818    0.59395   1.00
C6       0.36206    0.71104    0.55810   1.00
C6       0.35984    0.68922    0.61757   1.00
C6       0.38354    0.67701    0.55873   1.00
C6       0.38212    0.66313    0.59656   1.00
H3       0.35735    0.72940    0.53281   1.00
H3       0.35285    0.68704    0.64831   1.00
H3       0.39861    0.66380    0.53436   1.00
H3       0.39581    0.63694    0.60758   1.00
H2       0.19965    0.70526    0.36228   1.00
H2       0.20125    0.66917    0.40001   1.00
N1       0.15550    0.70971    0.40523   1.00
C6       0.12517    0.72373    0.38078   1.00
C6       0.13850    0.70625    0.44285   1.00
C6       0.09175    0.72848    0.40277   1.00
C6       0.09994    0.71776    0.44091   1.00
H3       0.12808    0.72976    0.34992   1.00
H3       0.15373    0.69652    0.46876   1.00
H3       0.06396    0.73886    0.39205   1.00
H3       0.07965    0.71839    0.46505   1.00
C4       0.24964    0.97915    0.25013   1.00
C4       0.25036    1.02085    0.24987   1.00
C3       0.22610    0.95751    0.22398   1.00
C3       0.24961    1.04252    0.21474   1.00
C3       0.27321    0.95738    0.27615   1.00
C3       0.25097    1.04259    0.28498   1.00
C2       0.24994    0.89482    0.24985   1.00
C2       0.24994    1.10518    0.24985   1.00
C3a      0.22613    0.91599    0.22373   1.00
C3       0.24942    1.08382    0.21481   1.00
C3       0.27332    0.91611    0.27595   1.00
C3a      0.25079    1.08403    0.28518   1.00
H1       0.20733    0.97294    0.20381   1.00
H1       0.24953    1.02750    0.18695   1.00
C5       0.20054    0.89410    0.19557   1.00
H1       0.24889    1.09933    0.18729   1.00
H1       0.29200    0.90056    0.29612   1.00
C5       0.25151    1.10535    0.32357   1.00
H1       0.25044    1.02747    0.31269   1.00
H1       0.29238    0.97230    0.29634   1.00
H2       0.27931    1.09837    0.33876   1.00
H2       0.25086    1.13747    0.31910   1.00
N1       0.21818    1.09395    0.34767   1.00
C6       0.21104    1.05810    0.36206   1.00
C6       0.18922    1.11757    0.35984   1.00
C6       0.17701    1.05873    0.38354   1.00
C6       0.16313    1.09656    0.38212   1.00
H3       0.22940    1.03281    0.35735   1.00
H3       0.18704    1.14831    0.35285   1.00
H3       0.16380    1.03436    0.39861   1.00
H3       0.13694    1.10758    0.39581   1.00
H2       0.20526    0.86228    0.19965   1.00
H2       0.16917    0.90001    0.20125   1.00
N1       0.20971    0.90523    0.15550   1.00
C6       0.22373    0.88078    0.12517   1.00
C6       0.20625    0.94285    0.13850   1.00
C6       0.22848    0.90277    0.09175   1.00
C6       0.21776    0.94091    0.09994   1.00
H3       0.22976    0.84992    0.12808   1.00
H3       0.19652    0.96876    0.15373   1.00
H3       0.23886    0.89205    0.06396   1.00
H3       0.21839    0.96505    0.07965   1.00
C4       0.02085    0.75013    0.25036   1.00
C4       -0.02085   0.74987    0.24964   1.00
C3       0.04249    0.72398    0.27390   1.00
C3       -0.04252   0.71474    0.25039   1.00
C3       0.04262    0.77615    0.22679   1.00
C3       -0.04259   0.78498    0.24903   1.00
C2       0.10518    0.74985    0.25006   1.00
C2       -0.10518   0.74985    0.25006   1.00
C3a      0.08401    0.72373    0.27387   1.00
C3       -0.08382   0.71481    0.25058   1.00
C3       0.08389    0.77595    0.22668   1.00
C3a      -0.08403   0.78518    0.24921   1.00
H1       0.02706    0.70381    0.29267   1.00
H1       -0.02750   0.68695    0.25047   1.00
C5       0.10590    0.69557    0.29946   1.00
H1       -0.09933   0.68729    0.25111   1.00
H1       0.09944    0.79612    0.20800   1.00
C5       -0.10535   0.82357    0.24849   1.00
H1       -0.02747   0.81269    0.24956   1.00
H1       0.02770    0.79634    0.20762   1.00
H2       -0.09837   0.83876    0.22069   1.00
H2       -0.13747   0.81910    0.24914   1.00
N1       -0.09395   0.84767    0.28182   1.00
C6       -0.05810   0.86206    0.28896   1.00
C6       -0.11757   0.85984    0.31078   1.00
C6       -0.05873   0.88354    0.32299   1.00
C6       -0.09656   0.88212    0.33687   1.00
H3       -0.03281   0.85735    0.27060   1.00
H3       -0.14831   0.85285    0.31296   1.00
H3       -0.03436   0.89861    0.33620   1.00
H3       -0.10758   0.89581    0.36306   1.00
H2       0.13772    0.69965    0.29474   1.00
H2       0.09999    0.70125    0.33083   1.00
N1       0.09477    0.65550    0.29029   1.00
C6       0.11922    0.62517    0.27627   1.00
C6       0.05715    0.63850    0.29375   1.00
C6       0.09723    0.59175    0.27152   1.00
C6       0.05909    0.59994    0.28224   1.00
H3       0.15008    0.62808    0.27024   1.00
H3       0.03124    0.65373    0.30348   1.00
H3       0.10795    0.56396    0.26114   1.00
H3       0.03495    0.57965    0.28161   1.00
C4       0.47915    0.75013    0.24964   1.00
C4       0.52085    0.74987    0.25036   1.00
C3       0.45751    0.72398    0.22610   1.00
C3       0.54252    0.71474    0.24961   1.00
C3       0.45738    0.77615    0.27321   1.00
C3       0.54259    0.78498    0.25097   1.00
C2       0.39482    0.74985    0.24994   1.00
C2       0.60518    0.74985    0.24994   1.00
C3a      0.41599    0.72373    0.22613   1.00
C3       0.58382    0.71481    0.24942   1.00
C3       0.41611    0.77595    0.27332   1.00
C3a      0.58403    0.78518    0.25079   1.00
H1       0.47294    0.70381    0.20733   1.00
H1       0.52750    0.68695    0.24953   1.00
C5       0.39410    0.69557    0.20054   1.00
H1       0.59933    0.68729    0.24889   1.00
H1       0.40056    0.79612    0.29200   1.00
C5       0.60535    0.82357    0.25151   1.00
H1       0.52747    0.81269    0.25044   1.00
H1       0.47230    0.79634    0.29238   1.00
H2       0.59837    0.83876    0.27931   1.00
H2       0.63747    0.81910    0.25086   1.00
N1       0.59395    0.84767    0.21818   1.00
C6       0.55810    0.86206    0.21104   1.00
C6       0.61757    0.85984    0.18922   1.00
C6       0.55873    0.88354    0.17701   1.00
C6       0.59656    0.88212    0.16313   1.00
H3       0.53281    0.85735    0.22940   1.00
H3       0.64831    0.85285    0.18704   1.00
H3       0.53436    0.89861    0.16380   1.00
H3       0.60758    0.89581    0.13694   1.00
H2       0.36228    0.69965    0.20526   1.00
H2       0.40001    0.70125    0.16917   1.00
N1       0.40523    0.65550    0.20971   1.00
C6       0.38078    0.62517    0.22373   1.00
C6       0.44285    0.63850    0.20625   1.00
C6       0.40277    0.59175    0.22848   1.00
C6       0.44091    0.59994    0.21776   1.00
H3       0.34992    0.62808    0.22976   1.00
H3       0.46876    0.65373    0.19652   1.00
H3       0.39205    0.56396    0.23886   1.00
H3       0.46505    0.57965    0.21839   1.00
C4       0.25036    0.52085    0.25013   1.00
C4       0.24964    0.47915    0.24987   1.00
C3       0.27390    0.54249    0.22398   1.00
C3       0.25039    0.45748    0.21474   1.00
C3       0.22679    0.54262    0.27615   1.00
C3       0.24903    0.45741    0.28498   1.00
C2       0.25006    0.60518    0.24985   1.00
C2       0.25006    0.39482    0.24985   1.00
C3a      0.27387    0.58401    0.22373   1.00
C3       0.25058    0.41618    0.21481   1.00
C3       0.22668    0.58389    0.27595   1.00
C3a      0.24921    0.41597    0.28518   1.00
H1       0.29267    0.52706    0.20381   1.00
H1       0.25047    0.47250    0.18695   1.00
C5       0.29946    0.60590    0.19557   1.00
H1       0.25111    0.40067    0.18729   1.00
H1       0.20800    0.59944    0.29612   1.00
C5       0.24849    0.39465    0.32357   1.00
H1       0.24956    0.47253    0.31269   1.00
H1       0.20762    0.52770    0.29634   1.00
H2       0.22069    0.40163    0.33876   1.00
H2       0.24914    0.36253    0.31910   1.00
N1       0.28182    0.40605    0.34767   1.00
C6       0.28896    0.44190    0.36206   1.00
C6       0.31078    0.38243    0.35984   1.00
C6       0.32299    0.44127    0.38354   1.00
C6       0.33687    0.40344    0.38212   1.00
H3       0.27060    0.46719    0.35735   1.00
H3       0.31296    0.35169    0.35285   1.00
H3       0.33620    0.46564    0.39861   1.00
H3       0.36306    0.39242    0.39581   1.00
H2       0.29474    0.63772    0.19965   1.00
H2       0.33083    0.59999    0.20125   1.00
N1       0.29029    0.59477    0.15550   1.00
C6       0.27627    0.61922    0.12517   1.00
C6       0.29375    0.55715    0.13850   1.00
C6       0.27152    0.59723    0.09175   1.00
C6       0.28224    0.55909    0.09994   1.00
H3       0.27024    0.65008    0.12808   1.00
H3       0.30348    0.53124    0.15373   1.00
H3       0.26114    0.60795    0.06396   1.00
H3       0.28161    0.53495    0.07965   1.00
C4       0.25013    0.75036    0.02085   1.00
C4       0.24987    0.74964    -0.02085   1.00
C3       0.22398    0.77390    0.04249   1.00
C3       0.21474    0.75039    -0.04252   1.00
C3       0.27615    0.72679    0.04262   1.00
C3       0.28498    0.74903    -0.04259   1.00
C2       0.24985    0.75006    0.10518   1.00
C2       0.24985    0.75006    -0.10518   1.00
C3a      0.22373    0.77387    0.08401   1.00
C3       0.21481    0.75058    -0.08382   1.00
C3       0.27595    0.72668    0.08389   1.00
C3a      0.28518    0.74921    -0.08403   1.00
H1       0.20381    0.79267    0.02706   1.00
H1       0.18695    0.75047    -0.02750   1.00
C5       0.19557    0.79946    0.10590   1.00
H1       0.18729    0.75111    -0.09933   1.00
H1       0.29612    0.70800    0.09944   1.00
C5       0.32357    0.74849    -0.10535   1.00
H1       0.31269    0.74956    -0.02747   1.00
H1       0.29634    0.70762    0.02770   1.00
H2       0.33876    0.72069    -0.09837   1.00
H2       0.31910    0.74914    -0.13747   1.00
N1       0.34767    0.78182    -0.09395   1.00
C6       0.36206    0.78896    -0.05810   1.00
C6       0.35984    0.81078    -0.11757   1.00
C6       0.38354    0.82299    -0.05873   1.00
C6       0.38212    0.83687    -0.09656   1.00
H3       0.35735    0.77060    -0.03281   1.00
H3       0.35285    0.81296    -0.14831   1.00
H3       0.39861    0.83620    -0.03436   1.00
H3       0.39581    0.86306    -0.10758   1.00
H2       0.19965    0.79474    0.13772   1.00
H2       0.20125    0.83083    0.09999   1.00
N1       0.15550    0.79029    0.09477   1.00
C6       0.12517    0.77627    0.11922   1.00
C6       0.13850    0.79375    0.05715   1.00
C6       0.09175    0.77152    0.09723   1.00
C6       0.09994    0.78224    0.05909   1.00
H3       0.12808    0.77024    0.15008   1.00
H3       0.15373    0.80348    0.03124   1.00
H3       0.06396    0.76114    0.10795   1.00
H3       0.07965    0.78161    0.03495   1.00
C4       0.75013    0.24964    0.47915   1.00
C4       0.74987    0.25036    0.52085   1.00
C3       0.72398    0.22610    0.45751   1.00
C3       0.71474    0.24961    0.54252   1.00
C3       0.77615    0.27321    0.45738   1.00
C3       0.78498    0.25097    0.54259   1.00
C2       0.74985    0.24994    0.39482   1.00
C2       0.74985    0.24994    0.60518   1.00
C3a      0.72373    0.22613    0.41599   1.00
C3       0.71481    0.24942    0.58382   1.00
C3       0.77595    0.27332    0.41611   1.00
C3a      0.78518    0.25079    0.58403   1.00
H1       0.70381    0.20733    0.47294   1.00
H1       0.68695    0.24953    0.52750   1.00
C5       0.69557    0.20054    0.39410   1.00
H1       0.68729    0.24889    0.59933   1.00
H1       0.79612    0.29200    0.40056   1.00
C5       0.82357    0.25151    0.60535   1.00
H1       0.81269    0.25044    0.52747   1.00
H1       0.79634    0.29238    0.47230   1.00
H2       0.83876    0.27931    0.59837   1.00
H2       0.81910    0.25086    0.63747   1.00
N1       0.84767    0.21818    0.59395   1.00
C6       0.86206    0.21104    0.55810   1.00
C6       0.85984    0.18922    0.61757   1.00
C6       0.88354    0.17701    0.55873   1.00
C6       0.88212    0.16313    0.59656   1.00
H3       0.85735    0.22940    0.53281   1.00
H3       0.85285    0.18704    0.64831   1.00
H3       0.89861    0.16380    0.53436   1.00
H3       0.89581    0.13694    0.60758   1.00
H2       0.69965    0.20526    0.36228   1.00
H2       0.70125    0.16917    0.40001   1.00
N1       0.65550    0.20971    0.40523   1.00
C6       0.62517    0.22373    0.38078   1.00
C6       0.63850    0.20625    0.44285   1.00
C6       0.59175    0.22848    0.40277   1.00
C6       0.59994    0.21776    0.44091   1.00
H3       0.62808    0.22976    0.34992   1.00
H3       0.65373    0.19652    0.46876   1.00
H3       0.56396    0.23886    0.39205   1.00
H3       0.57965    0.21839    0.46505   1.00
C4       0.74964    0.47915    0.25013   1.00
C4       0.75036    0.52085    0.24987   1.00
C3       0.72610    0.45751    0.22398   1.00
C3       0.74961    0.54252    0.21474   1.00
C3       0.77321    0.45738    0.27615   1.00
C3       0.75097    0.54259    0.28498   1.00
C2       0.74994    0.39482    0.24985   1.00
C2       0.74994    0.60518    0.24985   1.00
C3a      0.72613    0.41599    0.22373   1.00
C3       0.74942    0.58382    0.21481   1.00
C3       0.77332    0.41611    0.27595   1.00
C3a      0.75079    0.58403    0.28518   1.00
H1       0.70733    0.47294    0.20381   1.00
H1       0.74953    0.52750    0.18695   1.00
C5       0.70054    0.39410    0.19557   1.00
H1       0.74889    0.59933    0.18729   1.00
H1       0.79200    0.40056    0.29612   1.00
C5       0.75151    0.60535    0.32357   1.00
H1       0.75044    0.52747    0.31269   1.00
H1       0.79238    0.47230    0.29634   1.00
H2       0.77931    0.59837    0.33876   1.00
H2       0.75086    0.63747    0.31910   1.00
N1       0.71818    0.59395    0.34767   1.00
C6       0.71104    0.55810    0.36206   1.00
C6       0.68922    0.61757    0.35984   1.00
C6       0.67701    0.55873    0.38354   1.00
C6       0.66313    0.59656    0.38212   1.00
H3       0.72940    0.53281    0.35735   1.00
H3       0.68704    0.64831    0.35285   1.00
H3       0.66380    0.53436    0.39861   1.00
H3       0.63694    0.60758    0.39581   1.00
H2       0.70526    0.36228    0.19965   1.00
H2       0.66917    0.40001    0.20125   1.00
N1       0.70971    0.40523    0.15550   1.00
C6       0.72373    0.38078    0.12517   1.00
C6       0.70625    0.44285    0.13850   1.00
C6       0.72848    0.40277    0.09175   1.00
C6       0.71776    0.44091    0.09994   1.00
H3       0.72976    0.34992    0.12808   1.00
H3       0.69652    0.46876    0.15373   1.00
H3       0.73886    0.39205    0.06396   1.00
H3       0.71839    0.46505    0.07965   1.00
C4       0.52085    0.25013    0.25036   1.00
C4       0.47915    0.24987    0.24964   1.00
C3       0.54249    0.22398    0.27390   1.00
C3       0.45748    0.21474    0.25039   1.00
C3       0.54262    0.27615    0.22679   1.00
C3       0.45741    0.28498    0.24903   1.00
C2       0.60518    0.24985    0.25006   1.00
C2       0.39482    0.24985    0.25006   1.00
C3a      0.58401    0.22373    0.27387   1.00
C3       0.41618    0.21481    0.25058   1.00
C3       0.58389    0.27595    0.22668   1.00
C3a      0.41597    0.28518    0.24921   1.00
H1       0.52706    0.20381    0.29267   1.00
H1       0.47250    0.18695    0.25047   1.00
C5       0.60590    0.19557    0.29946   1.00
H1       0.40067    0.18729    0.25111   1.00
H1       0.59944    0.29612    0.20800   1.00
C5       0.39465    0.32357    0.24849   1.00
H1       0.47253    0.31269    0.24956   1.00
H1       0.52770    0.29634    0.20762   1.00
H2       0.40163    0.33876    0.22069   1.00
H2       0.36253    0.31910    0.24914   1.00
N1       0.40605    0.34767    0.28182   1.00
C6       0.44190    0.36206    0.28896   1.00
C6       0.38243    0.35984    0.31078   1.00
C6       0.44127    0.38354    0.32299   1.00
C6       0.40344    0.38212    0.33687   1.00
H3       0.46719    0.35735    0.27060   1.00
H3       0.35169    0.35285    0.31296   1.00
H3       0.46564    0.39861    0.33620   1.00
H3       0.39242    0.39581    0.36306   1.00
H2       0.63772    0.19965    0.29474   1.00
H2       0.59999    0.20125    0.33083   1.00
N1       0.59477    0.15550    0.29029   1.00
C6       0.61922    0.12517    0.27627   1.00
C6       0.55715    0.13850    0.29375   1.00
C6       0.59723    0.09175    0.27152   1.00
C6       0.55909    0.09994    0.28224   1.00
H3       0.65008    0.12808    0.27024   1.00
H3       0.53124    0.15373    0.30348   1.00
H3       0.60795    0.06396    0.26114   1.00
H3       0.53495    0.07965    0.28161   1.00
C4       0.97915    0.25013    0.24964   1.00
C4       1.02085    0.24987    0.25036   1.00
C3       0.95751    0.22398    0.22610   1.00
C3       1.04252    0.21474    0.24961   1.00
C3       0.95738    0.27615    0.27321   1.00
C3       1.04259    0.28498    0.25097   1.00
C2       0.89482    0.24985    0.24994   1.00
C2       1.10518    0.24985    0.24994   1.00
C3a      0.91599    0.22373    0.22613   1.00
C3       1.08382    0.21481    0.24942   1.00
C3       0.91611    0.27595    0.27332   1.00
C3a      1.08403    0.28518    0.25079   1.00
H1       0.97294    0.20381    0.20733   1.00
H1       1.02750    0.18695    0.24953   1.00
C5       0.89410    0.19557    0.20054   1.00
H1       1.09933    0.18729    0.24889   1.00
H1       0.90056    0.29612    0.29200   1.00
C5       1.10535    0.32357    0.25151   1.00
H1       1.02747    0.31269    0.25044   1.00
H1       0.97230    0.29634    0.29238   1.00
H2       1.09837    0.33876    0.27931   1.00
H2       1.13747    0.31910    0.25086   1.00
N1       1.09395    0.34767    0.21818   1.00
C6       1.05810    0.36206    0.21104   1.00
C6       1.11757    0.35984    0.18922   1.00
C6       1.05873    0.38354    0.17701   1.00
C6       1.09656    0.38212    0.16313   1.00
H3       1.03281    0.35735    0.22940   1.00
H3       1.14831    0.35285    0.18704   1.00
H3       1.03436    0.39861    0.16380   1.00
H3       1.10758    0.39581    0.13694   1.00
H2       0.86228    0.19965    0.20526   1.00
H2       0.90001    0.20125    0.16917   1.00
N1       0.90523    0.15550    0.20971   1.00
C6       0.88078    0.12517    0.22373   1.00
C6       0.94285    0.13850    0.20625   1.00
C6       0.90277    0.09175    0.22848   1.00
C6       0.94091    0.09994    0.21776   1.00
H3       0.84992    0.12808    0.22976   1.00
H3       0.96876    0.15373    0.19652   1.00
H3       0.89205    0.06396    0.23886   1.00
H3       0.96505    0.07965    0.21839   1.00
C4       0.75036    0.02085    0.25013   1.00
C4       0.74964    -0.02085   0.24987   1.00
C3       0.77390    0.04249    0.22398   1.00
C3       0.75039    -0.04252   0.21474   1.00
C3       0.72679    0.04262    0.27615   1.00
C3       0.74903    -0.04259   0.28498   1.00
C2       0.75006    0.10518    0.24985   1.00
C2       0.75006    -0.10518   0.24985   1.00
C3a      0.77387    0.08401    0.22373   1.00
C3       0.75058    -0.08382   0.21481   1.00
C3       0.72668    0.08389    0.27595   1.00
C3a      0.74921    -0.08403   0.28518   1.00
H1       0.79267    0.02706    0.20381   1.00
H1       0.75047    -0.02750   0.18695   1.00
C5       0.79946    0.10590    0.19557   1.00
H1       0.75111    -0.09933   0.18729   1.00
H1       0.70800    0.09944    0.29612   1.00
C5       0.74849    -0.10535   0.32357   1.00
H1       0.74956    -0.02747   0.31269   1.00
H1       0.70762    0.02770    0.29634   1.00
H2       0.72069    -0.09837   0.33876   1.00
H2       0.74914    -0.13747   0.31910   1.00
N1       0.78182    -0.09395   0.34767   1.00
C6       0.78896    -0.05810   0.36206   1.00
C6       0.81078    -0.11757   0.35984   1.00
C6       0.82299    -0.05873   0.38354   1.00
C6       0.83687    -0.09656   0.38212   1.00
H3       0.77060    -0.03281   0.35735   1.00
H3       0.81296    -0.14831   0.35285   1.00
H3       0.83620    -0.03436   0.39861   1.00
H3       0.86306    -0.10758   0.39581   1.00
H2       0.79474    0.13772    0.19965   1.00
H2       0.83083    0.09999    0.20125   1.00
N1       0.79029    0.09477    0.15550   1.00
C6       0.77627    0.11922    0.12517   1.00
C6       0.79375    0.05715    0.13850   1.00
C6       0.77152    0.09723    0.09175   1.00
C6       0.78224    0.05909    0.09994   1.00
H3       0.77024    0.15008    0.12808   1.00
H3       0.80348    0.03124    0.15373   1.00
H3       0.76114    0.10795    0.06396   1.00
H3       0.78161    0.03495    0.07965   1.00
C4       0.75013    0.25036    0.02085   1.00
C4       0.74987    0.24964    -0.02085   1.00
C3       0.72398    0.27390    0.04249   1.00
C3       0.71474    0.25039    -0.04252   1.00
C3       0.77615    0.22679    0.04262   1.00
C3       0.78498    0.24903    -0.04259   1.00
C2       0.74985    0.25006    0.10518   1.00
C2       0.74985    0.25006    -0.10518   1.00
C3a      0.72373    0.27387    0.08401   1.00
C3       0.71481    0.25058    -0.08382   1.00
C3       0.77595    0.22668    0.08389   1.00
C3a      0.78518    0.24921    -0.08403   1.00
H1       0.70381    0.29267    0.02706   1.00
H1       0.68695    0.25047    -0.02750   1.00
C5       0.69557    0.29946    0.10590   1.00
H1       0.68729    0.25111    -0.09933   1.00
H1       0.79612    0.20800    0.09944   1.00
C5       0.82357    0.24849    -0.10535   1.00
H1       0.81269    0.24956    -0.02747   1.00
H1       0.79634    0.20762    0.02770   1.00
H2       0.83876    0.22069    -0.09837   1.00
H2       0.81910    0.24914    -0.13747   1.00
N1       0.84767    0.28182    -0.09395   1.00
C6       0.86206    0.28896    -0.05810   1.00
C6       0.85984    0.31078    -0.11757   1.00
C6       0.88354    0.32299    -0.05873   1.00
C6       0.88212    0.33687    -0.09656   1.00
H3       0.85735    0.27060    -0.03281   1.00
H3       0.85285    0.31296    -0.14831   1.00
H3       0.89861    0.33620    -0.03436   1.00
H3       0.89581    0.36306    -0.10758   1.00
H2       0.69965    0.29474    0.13772   1.00
H2       0.70125    0.33083    0.09999   1.00
N1       0.65550    0.29029    0.09477   1.00
C6       0.62517    0.27627    0.11922   1.00
C6       0.63850    0.29375    0.05715   1.00
C6       0.59175    0.27152    0.09723   1.00
C6       0.59994    0.28224    0.05909   1.00
H3       0.62808    0.27024    0.15008   1.00
H3       0.65373    0.30348    0.03124   1.00
H3       0.56396    0.26114    0.10795   1.00
H3       0.57965    0.28161    0.03495   1.00
