data_IRMOF10_SG202_Ligand6_label_d.

_audit_creation_method             'generated by an auxiliary program of Tobunporous'

_symmetry_space_group_name_H-M     'P 1'
_symmetry_Int_Tables_number        1
_symmetry_cell_setting             triclinic

_cell_length_a                    34.2800
_cell_length_b                    34.2800
_cell_length_c                    34.2800
_cell_angle_alpha                 90.0000
_cell_angle_beta                  90.0000
_cell_angle_gamma                 90.0000

loop_
_atom_site_label
_atom_site_fract_x
_atom_site_fract_y
_atom_site_fract_z
_atom_site_occupancy
O1       0.75000    0.75000    0.75000   1.00
Zn1      0.71720    0.78280    0.78280   1.00
Zn1      0.78280    0.71720    0.78280   1.00
Zn1      0.78280    0.78280    0.71720   1.00
Zn1      0.71720    0.71720    0.71720   1.00
O2       0.72650    0.77350    0.83820   1.00
O2       0.72650    0.83820    0.77350   1.00
O2       0.66180    0.77350    0.77350   1.00
O2       0.77350    0.72650    0.83820   1.00
O2       0.83820    0.72650    0.77350   1.00
O2       0.77350    0.66180    0.77350   1.00
O2       0.77350    0.83820    0.72650   1.00
O2       0.83820    0.77350    0.72650   1.00
O2       0.77350    0.77350    0.66180   1.00
O2       0.66180    0.72650    0.72650   1.00
O2       0.72650    0.66180    0.72650   1.00
O2       0.72650    0.72650    0.66180   1.00
C1       0.75000    0.75000    0.85520   1.00
C1       0.75000    0.85520    0.75000   1.00
C1       0.64480    0.75000    0.75000   1.00
C1       0.85520    0.75000    0.75000   1.00
C1       0.75000    0.64480    0.75000   1.00
C1       0.75000    0.75000    0.64480   1.00
O1       0.25000    0.25000    0.75000   1.00
Zn1      0.21720    0.28280    0.78280   1.00
Zn1      0.28280    0.21720    0.78280   1.00
Zn1      0.28280    0.28280    0.71720   1.00
Zn1      0.21720    0.21720    0.71720   1.00
O2       0.22650    0.27350    0.83820   1.00
O2       0.22650    0.33820    0.77350   1.00
O2       0.16180    0.27350    0.77350   1.00
O2       0.27350    0.22650    0.83820   1.00
O2       0.33820    0.22650    0.77350   1.00
O2       0.27350    0.16180    0.77350   1.00
O2       0.27350    0.33820    0.72650   1.00
O2       0.33820    0.27350    0.72650   1.00
O2       0.27350    0.27350    0.66180   1.00
O2       0.16180    0.22650    0.72650   1.00
O2       0.22650    0.16180    0.72650   1.00
O2       0.22650    0.22650    0.66180   1.00
C1       0.25000    0.25000    0.85520   1.00
C1       0.25000    0.35520    0.75000   1.00
C1       0.14480    0.25000    0.75000   1.00
C1       0.35520    0.25000    0.75000   1.00
C1       0.25000    0.14480    0.75000   1.00
C1       0.25000    0.25000    0.64480   1.00
O1       0.25000    0.75000    0.25000   1.00
Zn1      0.21720    0.78280    0.28280   1.00
Zn1      0.28280    0.71720    0.28280   1.00
Zn1      0.28280    0.78280    0.21720   1.00
Zn1      0.21720    0.71720    0.21720   1.00
O2       0.22650    0.77350    0.33820   1.00
O2       0.22650    0.83820    0.27350   1.00
O2       0.16180    0.77350    0.27350   1.00
O2       0.27350    0.72650    0.33820   1.00
O2       0.33820    0.72650    0.27350   1.00
O2       0.27350    0.66180    0.27350   1.00
O2       0.27350    0.83820    0.22650   1.00
O2       0.33820    0.77350    0.22650   1.00
O2       0.27350    0.77350    0.16180   1.00
O2       0.16180    0.72650    0.22650   1.00
O2       0.22650    0.66180    0.22650   1.00
O2       0.22650    0.72650    0.16180   1.00
C1       0.25000    0.75000    0.35520   1.00
C1       0.25000    0.85520    0.25000   1.00
C1       0.14480    0.75000    0.25000   1.00
C1       0.35520    0.75000    0.25000   1.00
C1       0.25000    0.64480    0.25000   1.00
C1       0.25000    0.75000    0.14480   1.00
O1       0.75000    0.25000    0.25000   1.00
Zn1      0.71720    0.28280    0.28280   1.00
Zn1      0.78280    0.21720    0.28280   1.00
Zn1      0.78280    0.28280    0.21720   1.00
Zn1      0.71720    0.21720    0.21720   1.00
O2       0.72650    0.27350    0.33820   1.00
O2       0.72650    0.33820    0.27350   1.00
O2       0.66180    0.27350    0.27350   1.00
O2       0.77350    0.22650    0.33820   1.00
O2       0.83820    0.22650    0.27350   1.00
O2       0.77350    0.16180    0.27350   1.00
O2       0.77350    0.33820    0.22650   1.00
O2       0.83820    0.27350    0.22650   1.00
O2       0.77350    0.27350    0.16180   1.00
O2       0.66180    0.22650    0.22650   1.00
O2       0.72650    0.16180    0.22650   1.00
O2       0.72650    0.22650    0.16180   1.00
C1       0.75000    0.25000    0.35520   1.00
C1       0.75000    0.35520    0.25000   1.00
C1       0.64480    0.25000    0.25000   1.00
C1       0.85520    0.25000    0.25000   1.00
C1       0.75000    0.14480    0.25000   1.00
C1       0.75000    0.25000    0.14480   1.00
O1       0.25000    0.25000    0.25000   1.00
Zn1      0.28280    0.21720    0.21720   1.00
Zn1      0.21720    0.28280    0.21720   1.00
Zn1      0.21720    0.21720    0.28280   1.00
Zn1      0.28280    0.28280    0.28280   1.00
O2       0.27350    0.22650    0.16180   1.00
O2       0.27350    0.16180    0.22650   1.00
O2       0.33820    0.22650    0.22650   1.00
O2       0.22650    0.27350    0.16180   1.00
O2       0.16180    0.27350    0.22650   1.00
O2       0.22650    0.33820    0.22650   1.00
O2       0.22650    0.16180    0.27350   1.00
O2       0.16180    0.22650    0.27350   1.00
O2       0.22650    0.22650    0.33820   1.00
O2       0.33820    0.27350    0.27350   1.00
O2       0.27350    0.33820    0.27350   1.00
O2       0.27350    0.27350    0.33820   1.00
C1       0.25000    0.25000    0.14480   1.00
C1       0.25000    0.14480    0.25000   1.00
C1       0.35520    0.25000    0.25000   1.00
C1       0.14480    0.25000    0.25000   1.00
C1       0.25000    0.35520    0.25000   1.00
C1       0.25000    0.25000    0.35520   1.00
O1       0.75000    0.75000    0.25000   1.00
Zn1      0.78280    0.71720    0.21720   1.00
Zn1      0.71720    0.78280    0.21720   1.00
Zn1      0.71720    0.71720    0.28280   1.00
Zn1      0.78280    0.78280    0.28280   1.00
O2       0.77350    0.72650    0.16180   1.00
O2       0.77350    0.66180    0.22650   1.00
O2       0.83820    0.72650    0.22650   1.00
O2       0.72650    0.77350    0.16180   1.00
O2       0.66180    0.77350    0.22650   1.00
O2       0.72650    0.83820    0.22650   1.00
O2       0.72650    0.66180    0.27350   1.00
O2       0.66180    0.72650    0.27350   1.00
O2       0.72650    0.72650    0.33820   1.00
O2       0.83820    0.77350    0.27350   1.00
O2       0.77350    0.83820    0.27350   1.00
O2       0.77350    0.77350    0.33820   1.00
C1       0.75000    0.75000    0.14480   1.00
C1       0.75000    0.64480    0.25000   1.00
C1       0.85520    0.75000    0.25000   1.00
C1       0.64480    0.75000    0.25000   1.00
C1       0.75000    0.85520    0.25000   1.00
C1       0.75000    0.75000    0.35520   1.00
O1       0.75000    0.25000    0.75000   1.00
Zn1      0.78280    0.21720    0.71720   1.00
Zn1      0.71720    0.28280    0.71720   1.00
Zn1      0.71720    0.21720    0.78280   1.00
Zn1      0.78280    0.28280    0.78280   1.00
O2       0.77350    0.22650    0.66180   1.00
O2       0.77350    0.16180    0.72650   1.00
O2       0.83820    0.22650    0.72650   1.00
O2       0.72650    0.27350    0.66180   1.00
O2       0.66180    0.27350    0.72650   1.00
O2       0.72650    0.33820    0.72650   1.00
O2       0.72650    0.16180    0.77350   1.00
O2       0.66180    0.22650    0.77350   1.00
O2       0.72650    0.22650    0.83820   1.00
O2       0.83820    0.27350    0.77350   1.00
O2       0.77350    0.33820    0.77350   1.00
O2       0.77350    0.27350    0.83820   1.00
C1       0.75000    0.25000    0.64480   1.00
C1       0.75000    0.14480    0.75000   1.00
C1       0.85520    0.25000    0.75000   1.00
C1       0.64480    0.25000    0.75000   1.00
C1       0.75000    0.35520    0.75000   1.00
C1       0.75000    0.25000    0.85520   1.00
O1       0.25000    0.75000    0.75000   1.00
Zn1      0.28280    0.71720    0.71720   1.00
Zn1      0.21720    0.78280    0.71720   1.00
Zn1      0.21720    0.71720    0.78280   1.00
Zn1      0.28280    0.78280    0.78280   1.00
O2       0.27350    0.72650    0.66180   1.00
O2       0.27350    0.66180    0.72650   1.00
O2       0.33820    0.72650    0.72650   1.00
O2       0.22650    0.77350    0.66180   1.00
O2       0.16180    0.77350    0.72650   1.00
O2       0.22650    0.83820    0.72650   1.00
O2       0.22650    0.66180    0.77350   1.00
O2       0.16180    0.72650    0.77350   1.00
O2       0.22650    0.72650    0.83820   1.00
O2       0.33820    0.77350    0.77350   1.00
O2       0.27350    0.83820    0.77350   1.00
O2       0.27350    0.77350    0.83820   1.00
C1       0.25000    0.75000    0.64480   1.00
C1       0.25000    0.64480    0.75000   1.00
C1       0.35520    0.75000    0.75000   1.00
C1       0.14480    0.75000    0.75000   1.00
C1       0.25000    0.85520    0.75000   1.00
C1       0.25000    0.75000    0.85520   1.00
C5       0.76659    0.87569    1.13218   1.00
H2       0.73872    0.86939    1.14745   1.00
H2       0.75991    0.89922    1.11090   1.00
C5       0.79718    0.88972    1.16194   1.00
C5       0.79159    0.93332    1.17123   1.00
H2       0.82710    0.88515    1.15015   1.00
O3       0.82076    0.75286    0.98000   1.00
C4       0.74965    0.74977    1.02100   1.00
C3c      0.74756    0.78463    1.04243   1.00
H1       0.74579    0.81222    1.02725   1.00
C3d      0.75137    0.71409    1.04135   1.00
C3       0.74827    0.78458    1.08354   1.00
O2       0.74133    0.81930    1.10248   1.00
C3       0.75284    0.71398    1.08227   1.00
H1       0.75556    0.68600    1.09657   1.00
C2       0.75118    0.74899    1.10439   1.00
C5       0.84000    0.71645    0.97879   1.00
H2       0.84689    0.70719    0.94838   1.00
H2       0.82192    0.69318    0.99266   1.00
C5       0.87815    0.72060    1.00129   1.00
H2       0.87133    0.73091    1.03137   1.00
H2       0.89610    0.74364    0.98698   1.00
C5       0.90044    0.68162    1.00262   1.00
H2       0.90710    0.67101    0.97268   1.00
H2       0.88309    0.65896    1.01811   1.00
C5       0.93935    0.68689    1.02445   1.00
C5       0.71968    0.66401    1.01105   1.00
C5       0.77709    0.83817    1.11070   1.00
H2       0.70405    0.68406    0.99088   1.00
H2       0.70091    0.65871    1.03712   1.00
H2       0.79277    0.84503    1.08300   1.00
H2       0.79700    0.81983    1.12895   1.00
H2       0.79424    0.87385    1.19030   1.00
H2       0.68379    0.63054    0.94247   1.00
H2       0.66435    0.61063    0.98763   1.00
C2       0.75205    0.74828    0.89605   1.00
C3       0.71599    0.74880    0.91597   1.00
O2       0.68198    0.73912    0.89674   1.00
C3       0.78681    0.75021    0.91826   1.00
H1       0.81485    0.75088    0.90385   1.00
C3a      0.71545    0.75019    0.95713   1.00
H1       0.68769    0.74832    0.97202   1.00
C3b      0.78619    0.75032    0.95922   1.00
C4       0.75035    0.75023    0.97900   1.00
O3       0.75645    0.67919    1.02167   1.00
C5       0.66084    0.77314    0.88720   1.00
H2       0.65310    0.79013    0.91391   1.00
C5       0.62358    0.76002    0.86674   1.00
H2       0.67797    0.79229    0.86726   1.00
H2       0.60230    0.75036    0.88932   1.00
H2       0.63091    0.73374    0.84907   1.00
C5       0.60562    0.79201    0.84082   1.00
H2       0.60137    0.81903    0.85824   1.00
C5       0.56587    0.77889    0.82453   1.00
H2       0.62459    0.79851    0.81507   1.00
C5       0.72667    0.62536    0.99017   1.00
H2       0.73604    0.60332    1.01215   1.00
H2       0.75148    0.62928    0.96952   1.00
C5       0.69020    0.61135    0.96800   1.00
C5       0.69687    0.56981    0.95225   1.00
H2       0.76659    0.93693    1.19286   1.00
H2       0.81955    0.94550    1.18447   1.00
H2       0.78449    0.94980    1.14323   1.00
H2       0.95249    0.65707    1.03105   1.00
H2       0.96040    0.70434    1.00551   1.00
H2       0.93396    0.70318    1.05293   1.00
H2       0.56186    0.79114    0.79387   1.00
H2       0.56475    0.74567    0.82344   1.00
H2       0.54155    0.79016    0.84423   1.00
H2       0.72878    0.56139    0.95634   1.00
H2       0.67754    0.54843    0.96884   1.00
H2       0.68921    0.56886    0.91990   1.00
C5       0.87569    1.13218    0.76659   1.00
H2       0.86939    1.14745    0.73872   1.00
H2       0.89922    1.11090    0.75991   1.00
C5       0.88972    1.16194    0.79718   1.00
C5       0.93332    1.17123    0.79159   1.00
H2       0.88515    1.15015    0.82710   1.00
O3       0.75286    0.98000    0.82076   1.00
C4       0.74977    1.02100    0.74965   1.00
C3c      0.78463    1.04243    0.74756   1.00
H1       0.81222    1.02725    0.74579   1.00
C3d      0.71409    1.04135    0.75137   1.00
C3       0.78458    1.08354    0.74827   1.00
O2       0.81930    1.10248    0.74133   1.00
C3       0.71398    1.08227    0.75284   1.00
H1       0.68600    1.09657    0.75556   1.00
C2       0.74899    1.10439    0.75118   1.00
C5       0.71645    0.97879    0.84000   1.00
H2       0.70719    0.94838    0.84689   1.00
H2       0.69318    0.99266    0.82192   1.00
C5       0.72060    1.00129    0.87815   1.00
H2       0.73091    1.03137    0.87133   1.00
H2       0.74364    0.98698    0.89610   1.00
C5       0.68162    1.00262    0.90044   1.00
H2       0.67101    0.97268    0.90710   1.00
H2       0.65896    1.01811    0.88309   1.00
C5       0.68689    1.02445    0.93935   1.00
C5       0.66401    1.01105    0.71968   1.00
C5       0.83817    1.11070    0.77709   1.00
H2       0.68406    0.99088    0.70405   1.00
H2       0.65871    1.03712    0.70091   1.00
H2       0.84503    1.08300    0.79277   1.00
H2       0.81983    1.12895    0.79700   1.00
H2       0.87385    1.19030    0.79424   1.00
H2       0.63054    0.94247    0.68379   1.00
H2       0.61063    0.98763    0.66435   1.00
C2       0.74828    0.89605    0.75205   1.00
C3       0.74880    0.91597    0.71599   1.00
O2       0.73912    0.89674    0.68198   1.00
C3       0.75021    0.91826    0.78681   1.00
H1       0.75088    0.90385    0.81485   1.00
C3a      0.75019    0.95713    0.71545   1.00
H1       0.74832    0.97202    0.68769   1.00
C3b      0.75032    0.95922    0.78619   1.00
C4       0.75023    0.97900    0.75035   1.00
O3       0.67919    1.02167    0.75645   1.00
C5       0.77314    0.88720    0.66084   1.00
H2       0.79013    0.91391    0.65310   1.00
C5       0.76002    0.86674    0.62358   1.00
H2       0.79229    0.86726    0.67797   1.00
H2       0.75036    0.88932    0.60230   1.00
H2       0.73374    0.84907    0.63091   1.00
C5       0.79201    0.84082    0.60562   1.00
H2       0.81903    0.85824    0.60137   1.00
C5       0.77889    0.82453    0.56587   1.00
H2       0.79851    0.81507    0.62459   1.00
C5       0.62536    0.99017    0.72667   1.00
H2       0.60332    1.01215    0.73604   1.00
H2       0.62928    0.96952    0.75148   1.00
C5       0.61135    0.96800    0.69020   1.00
C5       0.56981    0.95225    0.69687   1.00
H2       0.93693    1.19286    0.76659   1.00
H2       0.94550    1.18447    0.81955   1.00
H2       0.94980    1.14323    0.78449   1.00
H2       0.65707    1.03105    0.95249   1.00
H2       0.70434    1.00551    0.96040   1.00
H2       0.70318    1.05293    0.93396   1.00
H2       0.79114    0.79387    0.56186   1.00
H2       0.74567    0.82344    0.56475   1.00
H2       0.79016    0.84423    0.54155   1.00
H2       0.56139    0.95634    0.72878   1.00
H2       0.54843    0.96884    0.67754   1.00
H2       0.56886    0.91990    0.68921   1.00
C5       0.36782    0.76659    0.62431   1.00
H2       0.35255    0.73872    0.63061   1.00
H2       0.38910    0.75991    0.60078   1.00
C5       0.33806    0.79718    0.61028   1.00
C5       0.32877    0.79159    0.56668   1.00
H2       0.34985    0.82710    0.61485   1.00
O3       0.52000    0.82076    0.74714   1.00
C4       0.47900    0.74965    0.75023   1.00
C3c      0.45757    0.74756    0.71537   1.00
H1       0.47275    0.74579    0.68778   1.00
C3d      0.45865    0.75137    0.78591   1.00
C3       0.41646    0.74827    0.71542   1.00
O2       0.39752    0.74133    0.68070   1.00
C3       0.41773    0.75284    0.78602   1.00
H1       0.40343    0.75556    0.81400   1.00
C2       0.39561    0.75118    0.75101   1.00
C5       0.52121    0.84000    0.78355   1.00
H2       0.55162    0.84689    0.79281   1.00
H2       0.50734    0.82192    0.80682   1.00
C5       0.49871    0.87815    0.77940   1.00
H2       0.46863    0.87133    0.76909   1.00
H2       0.51302    0.89610    0.75636   1.00
C5       0.49738    0.90044    0.81838   1.00
H2       0.52732    0.90710    0.82899   1.00
H2       0.48189    0.88309    0.84104   1.00
C5       0.47555    0.93935    0.81311   1.00
C5       0.48895    0.71968    0.83599   1.00
C5       0.38930    0.77709    0.66183   1.00
H2       0.50912    0.70405    0.81594   1.00
H2       0.46288    0.70091    0.84129   1.00
H2       0.41700    0.79277    0.65497   1.00
H2       0.37105    0.79700    0.68017   1.00
H2       0.30970    0.79424    0.62615   1.00
H2       0.55753    0.68379    0.86946   1.00
H2       0.51237    0.66435    0.88937   1.00
C2       0.60395    0.75205    0.75172   1.00
C3       0.58403    0.71599    0.75120   1.00
O2       0.60326    0.68198    0.76088   1.00
C3       0.58174    0.78681    0.74979   1.00
H1       0.59615    0.81485    0.74912   1.00
C3a      0.54287    0.71545    0.74981   1.00
H1       0.52798    0.68769    0.75168   1.00
C3b      0.54078    0.78619    0.74968   1.00
C4       0.52100    0.75035    0.74977   1.00
O3       0.47833    0.75645    0.82081   1.00
C5       0.61280    0.66084    0.72686   1.00
H2       0.58609    0.65310    0.70987   1.00
C5       0.63326    0.62358    0.73998   1.00
H2       0.63274    0.67797    0.70771   1.00
H2       0.61068    0.60230    0.74964   1.00
H2       0.65093    0.63091    0.76626   1.00
C5       0.65918    0.60562    0.70799   1.00
H2       0.64176    0.60137    0.68097   1.00
C5       0.67547    0.56587    0.72111   1.00
H2       0.68493    0.62459    0.70149   1.00
C5       0.50983    0.72667    0.87464   1.00
H2       0.48785    0.73604    0.89668   1.00
H2       0.53048    0.75148    0.87072   1.00
C5       0.53200    0.69020    0.88865   1.00
C5       0.54775    0.69687    0.93019   1.00
H2       0.30714    0.76659    0.56307   1.00
H2       0.31553    0.81955    0.55450   1.00
H2       0.35677    0.78449    0.55020   1.00
H2       0.46895    0.95249    0.84293   1.00
H2       0.49449    0.96040    0.79566   1.00
H2       0.44707    0.93396    0.79682   1.00
H2       0.70613    0.56186    0.70886   1.00
H2       0.67656    0.56475    0.75433   1.00
H2       0.65577    0.54155    0.70984   1.00
H2       0.54366    0.72878    0.93861   1.00
H2       0.53116    0.67754    0.95157   1.00
H2       0.58010    0.68921    0.93114   1.00
C5       1.13218    0.76659    0.87569   1.00
H2       1.14745    0.73872    0.86939   1.00
H2       1.11090    0.75991    0.89922   1.00
C5       1.16194    0.79718    0.88972   1.00
C5       1.17123    0.79159    0.93332   1.00
H2       1.15015    0.82710    0.88515   1.00
O3       0.98000    0.82076    0.75286   1.00
C4       1.02100    0.74965    0.74977   1.00
C3c      1.04243    0.74756    0.78463   1.00
H1       1.02725    0.74579    0.81222   1.00
C3d      1.04135    0.75137    0.71409   1.00
C3       1.08354    0.74827    0.78458   1.00
O2       1.10248    0.74133    0.81930   1.00
C3       1.08227    0.75284    0.71398   1.00
H1       1.09657    0.75556    0.68600   1.00
C2       1.10439    0.75118    0.74899   1.00
C5       0.97879    0.84000    0.71645   1.00
H2       0.94838    0.84689    0.70719   1.00
H2       0.99266    0.82192    0.69318   1.00
C5       1.00129    0.87815    0.72060   1.00
H2       1.03137    0.87133    0.73091   1.00
H2       0.98698    0.89610    0.74364   1.00
C5       1.00262    0.90044    0.68162   1.00
H2       0.97268    0.90710    0.67101   1.00
H2       1.01811    0.88309    0.65896   1.00
C5       1.02445    0.93935    0.68689   1.00
C5       1.01105    0.71968    0.66401   1.00
C5       1.11070    0.77709    0.83817   1.00
H2       0.99088    0.70405    0.68406   1.00
H2       1.03712    0.70091    0.65871   1.00
H2       1.08300    0.79277    0.84503   1.00
H2       1.12895    0.79700    0.81983   1.00
H2       1.19030    0.79424    0.87385   1.00
H2       0.94247    0.68379    0.63054   1.00
H2       0.98763    0.66435    0.61063   1.00
C2       0.89605    0.75205    0.74828   1.00
C3       0.91597    0.71599    0.74880   1.00
O2       0.89674    0.68198    0.73912   1.00
C3       0.91826    0.78681    0.75021   1.00
H1       0.90385    0.81485    0.75088   1.00
C3a      0.95713    0.71545    0.75019   1.00
H1       0.97202    0.68769    0.74832   1.00
C3b      0.95922    0.78619    0.75032   1.00
C4       0.97900    0.75035    0.75023   1.00
O3       1.02167    0.75645    0.67919   1.00
C5       0.88720    0.66084    0.77314   1.00
H2       0.91391    0.65310    0.79013   1.00
C5       0.86674    0.62358    0.76002   1.00
H2       0.86726    0.67797    0.79229   1.00
H2       0.88932    0.60230    0.75036   1.00
H2       0.84907    0.63091    0.73374   1.00
C5       0.84082    0.60562    0.79201   1.00
H2       0.85824    0.60137    0.81903   1.00
C5       0.82453    0.56587    0.77889   1.00
H2       0.81507    0.62459    0.79851   1.00
C5       0.99017    0.72667    0.62536   1.00
H2       1.01215    0.73604    0.60332   1.00
H2       0.96952    0.75148    0.62928   1.00
C5       0.96800    0.69020    0.61135   1.00
C5       0.95225    0.69687    0.56981   1.00
H2       1.19286    0.76659    0.93693   1.00
H2       1.18447    0.81955    0.94550   1.00
H2       1.14323    0.78449    0.94980   1.00
H2       1.03105    0.95249    0.65707   1.00
H2       1.00551    0.96040    0.70434   1.00
H2       1.05293    0.93396    0.70318   1.00
H2       0.79387    0.56186    0.79114   1.00
H2       0.82344    0.56475    0.74567   1.00
H2       0.84423    0.54155    0.79016   1.00
H2       0.95634    0.72878    0.56139   1.00
H2       0.96884    0.67754    0.54843   1.00
H2       0.91990    0.68921    0.56886   1.00
C5       0.62431    0.36782    0.76659   1.00
H2       0.63061    0.35255    0.73872   1.00
H2       0.60078    0.38910    0.75991   1.00
C5       0.61028    0.33806    0.79718   1.00
C5       0.56668    0.32877    0.79159   1.00
H2       0.61485    0.34985    0.82710   1.00
O3       0.74714    0.52000    0.82076   1.00
C4       0.75023    0.47900    0.74965   1.00
C3c      0.71537    0.45757    0.74756   1.00
H1       0.68778    0.47275    0.74579   1.00
C3d      0.78591    0.45865    0.75137   1.00
C3       0.71542    0.41646    0.74827   1.00
O2       0.68070    0.39752    0.74133   1.00
C3       0.78602    0.41773    0.75284   1.00
H1       0.81400    0.40343    0.75556   1.00
C2       0.75101    0.39561    0.75118   1.00
C5       0.78355    0.52121    0.84000   1.00
H2       0.79281    0.55162    0.84689   1.00
H2       0.80682    0.50734    0.82192   1.00
C5       0.77940    0.49871    0.87815   1.00
H2       0.76909    0.46863    0.87133   1.00
H2       0.75636    0.51302    0.89610   1.00
C5       0.81838    0.49738    0.90044   1.00
H2       0.82899    0.52732    0.90710   1.00
H2       0.84104    0.48189    0.88309   1.00
C5       0.81311    0.47555    0.93935   1.00
C5       0.83599    0.48895    0.71968   1.00
C5       0.66183    0.38930    0.77709   1.00
H2       0.81594    0.50912    0.70405   1.00
H2       0.84129    0.46288    0.70091   1.00
H2       0.65497    0.41700    0.79277   1.00
H2       0.68017    0.37105    0.79700   1.00
H2       0.62615    0.30970    0.79424   1.00
H2       0.86946    0.55753    0.68379   1.00
H2       0.88937    0.51237    0.66435   1.00
C2       0.75172    0.60395    0.75205   1.00
C3       0.75120    0.58403    0.71599   1.00
O2       0.76088    0.60326    0.68198   1.00
C3       0.74979    0.58174    0.78681   1.00
H1       0.74912    0.59615    0.81485   1.00
C3a      0.74981    0.54287    0.71545   1.00
H1       0.75168    0.52798    0.68769   1.00
C3b      0.74968    0.54078    0.78619   1.00
C4       0.74977    0.52100    0.75035   1.00
O3       0.82081    0.47833    0.75645   1.00
C5       0.72686    0.61280    0.66084   1.00
H2       0.70987    0.58609    0.65310   1.00
C5       0.73998    0.63326    0.62358   1.00
H2       0.70771    0.63274    0.67797   1.00
H2       0.74964    0.61068    0.60230   1.00
H2       0.76626    0.65093    0.63091   1.00
C5       0.70799    0.65918    0.60562   1.00
H2       0.68097    0.64176    0.60137   1.00
C5       0.72111    0.67547    0.56587   1.00
H2       0.70149    0.68493    0.62459   1.00
C5       0.87464    0.50983    0.72667   1.00
H2       0.89668    0.48785    0.73604   1.00
H2       0.87072    0.53048    0.75148   1.00
C5       0.88865    0.53200    0.69020   1.00
C5       0.93019    0.54775    0.69687   1.00
H2       0.56307    0.30714    0.76659   1.00
H2       0.55450    0.31553    0.81955   1.00
H2       0.55020    0.35677    0.78449   1.00
H2       0.84293    0.46895    0.95249   1.00
H2       0.79566    0.49449    0.96040   1.00
H2       0.79682    0.44707    0.93396   1.00
H2       0.70886    0.70613    0.56186   1.00
H2       0.75433    0.67656    0.56475   1.00
H2       0.70984    0.65577    0.54155   1.00
H2       0.93861    0.54366    0.72878   1.00
H2       0.95157    0.53116    0.67754   1.00
H2       0.93114    0.58010    0.68921   1.00
C5       0.76659    0.62431    0.36782   1.00
H2       0.73872    0.63061    0.35255   1.00
H2       0.75991    0.60078    0.38910   1.00
C5       0.79718    0.61028    0.33806   1.00
C5       0.79159    0.56668    0.32877   1.00
H2       0.82710    0.61485    0.34985   1.00
O3       0.82076    0.74714    0.52000   1.00
C4       0.74965    0.75023    0.47900   1.00
C3c      0.74756    0.71537    0.45757   1.00
H1       0.74579    0.68778    0.47275   1.00
C3d      0.75137    0.78591    0.45865   1.00
C3       0.74827    0.71542    0.41646   1.00
O2       0.74133    0.68070    0.39752   1.00
C3       0.75284    0.78602    0.41773   1.00
H1       0.75556    0.81400    0.40343   1.00
C2       0.75118    0.75101    0.39561   1.00
C5       0.84000    0.78355    0.52121   1.00
H2       0.84689    0.79281    0.55162   1.00
H2       0.82192    0.80682    0.50734   1.00
C5       0.87815    0.77940    0.49871   1.00
H2       0.87133    0.76909    0.46863   1.00
H2       0.89610    0.75636    0.51302   1.00
C5       0.90044    0.81838    0.49738   1.00
H2       0.90710    0.82899    0.52732   1.00
H2       0.88309    0.84104    0.48189   1.00
C5       0.93935    0.81311    0.47555   1.00
C5       0.71968    0.83599    0.48895   1.00
C5       0.77709    0.66183    0.38930   1.00
H2       0.70405    0.81594    0.50912   1.00
H2       0.70091    0.84129    0.46288   1.00
H2       0.79277    0.65497    0.41700   1.00
H2       0.79700    0.68017    0.37105   1.00
H2       0.79424    0.62615    0.30970   1.00
H2       0.68379    0.86946    0.55753   1.00
H2       0.66435    0.88937    0.51237   1.00
C2       0.75205    0.75172    0.60395   1.00
C3       0.71599    0.75120    0.58403   1.00
O2       0.68198    0.76088    0.60326   1.00
C3       0.78681    0.74979    0.58174   1.00
H1       0.81485    0.74912    0.59615   1.00
C3a      0.71545    0.74981    0.54287   1.00
H1       0.68769    0.75168    0.52798   1.00
C3b      0.78619    0.74968    0.54078   1.00
C4       0.75035    0.74977    0.52100   1.00
O3       0.75645    0.82081    0.47833   1.00
C5       0.66084    0.72686    0.61280   1.00
H2       0.65310    0.70987    0.58609   1.00
C5       0.62358    0.73998    0.63326   1.00
H2       0.67797    0.70771    0.63274   1.00
H2       0.60230    0.74964    0.61068   1.00
H2       0.63091    0.76626    0.65093   1.00
C5       0.60562    0.70799    0.65918   1.00
H2       0.60137    0.68097    0.64176   1.00
C5       0.56587    0.72111    0.67547   1.00
H2       0.62459    0.70149    0.68493   1.00
C5       0.72667    0.87464    0.50983   1.00
H2       0.73604    0.89668    0.48785   1.00
H2       0.75148    0.87072    0.53048   1.00
C5       0.69020    0.88865    0.53200   1.00
C5       0.69687    0.93019    0.54775   1.00
H2       0.76659    0.56307    0.30714   1.00
H2       0.81955    0.55450    0.31553   1.00
H2       0.78449    0.55020    0.35677   1.00
H2       0.95249    0.84293    0.46895   1.00
H2       0.96040    0.79566    0.49449   1.00
H2       0.93396    0.79682    0.44707   1.00
H2       0.56186    0.70886    0.70613   1.00
H2       0.56475    0.75433    0.67656   1.00
H2       0.54155    0.70984    0.65577   1.00
H2       0.72878    0.93861    0.54366   1.00
H2       0.67754    0.95157    0.53116   1.00
H2       0.68921    0.93114    0.58010   1.00
C5       0.26659    0.37569    1.13218   1.00
H2       0.23872    0.36939    1.14745   1.00
H2       0.25991    0.39922    1.11090   1.00
C5       0.29718    0.38972    1.16194   1.00
C5       0.29159    0.43332    1.17123   1.00
H2       0.32710    0.38515    1.15015   1.00
O3       0.32076    0.25286    0.98000   1.00
C4       0.24965    0.24977    1.02100   1.00
C3c      0.24756    0.28463    1.04243   1.00
H1       0.24579    0.31222    1.02725   1.00
C3d      0.25137    0.21409    1.04135   1.00
C3       0.24827    0.28458    1.08354   1.00
O2       0.24133    0.31930    1.10248   1.00
C3       0.25284    0.21398    1.08227   1.00
H1       0.25556    0.18600    1.09657   1.00
C2       0.25118    0.24899    1.10439   1.00
C5       0.34000    0.21645    0.97879   1.00
H2       0.34689    0.20719    0.94838   1.00
H2       0.32192    0.19318    0.99266   1.00
C5       0.37815    0.22060    1.00129   1.00
H2       0.37133    0.23091    1.03137   1.00
H2       0.39610    0.24364    0.98698   1.00
C5       0.40044    0.18162    1.00262   1.00
H2       0.40710    0.17101    0.97268   1.00
H2       0.38309    0.15896    1.01811   1.00
C5       0.43935    0.18689    1.02445   1.00
C5       0.21968    0.16401    1.01105   1.00
C5       0.27709    0.33817    1.11070   1.00
H2       0.20405    0.18406    0.99088   1.00
H2       0.20091    0.15871    1.03712   1.00
H2       0.29277    0.34503    1.08300   1.00
H2       0.29700    0.31983    1.12895   1.00
H2       0.29424    0.37385    1.19030   1.00
H2       0.18379    0.13054    0.94247   1.00
H2       0.16435    0.11063    0.98763   1.00
C2       0.25205    0.24828    0.89605   1.00
C3       0.21599    0.24880    0.91597   1.00
O2       0.18198    0.23912    0.89674   1.00
C3       0.28681    0.25021    0.91826   1.00
H1       0.31485    0.25088    0.90385   1.00
C3a      0.21545    0.25019    0.95713   1.00
H1       0.18769    0.24832    0.97202   1.00
C3b      0.28619    0.25032    0.95922   1.00
C4       0.25035    0.25023    0.97900   1.00
O3       0.25645    0.17919    1.02167   1.00
C5       0.16084    0.27314    0.88720   1.00
H2       0.15310    0.29013    0.91391   1.00
C5       0.12358    0.26002    0.86674   1.00
H2       0.17797    0.29229    0.86726   1.00
H2       0.10230    0.25036    0.88932   1.00
H2       0.13091    0.23374    0.84907   1.00
C5       0.10562    0.29201    0.84082   1.00
H2       0.10137    0.31903    0.85824   1.00
C5       0.06587    0.27889    0.82453   1.00
H2       0.12459    0.29851    0.81507   1.00
C5       0.22667    0.12536    0.99017   1.00
H2       0.23604    0.10332    1.01215   1.00
H2       0.25148    0.12928    0.96952   1.00
C5       0.19020    0.11135    0.96800   1.00
C5       0.19687    0.06981    0.95225   1.00
H2       0.26659    0.43693    1.19286   1.00
H2       0.31955    0.44550    1.18447   1.00
H2       0.28449    0.44980    1.14323   1.00
H2       0.45249    0.15707    1.03105   1.00
H2       0.46040    0.20434    1.00551   1.00
H2       0.43396    0.20318    1.05293   1.00
H2       0.06186    0.29114    0.79387   1.00
H2       0.06475    0.24567    0.82344   1.00
H2       0.04155    0.29016    0.84423   1.00
H2       0.22878    0.06139    0.95634   1.00
H2       0.17754    0.04843    0.96884   1.00
H2       0.18921    0.06886    0.91990   1.00
C5       0.37569    0.63218    0.76659   1.00
H2       0.36939    0.64745    0.73872   1.00
H2       0.39922    0.61090    0.75991   1.00
C5       0.38972    0.66194    0.79718   1.00
C5       0.43332    0.67123    0.79159   1.00
H2       0.38515    0.65015    0.82710   1.00
O3       0.25286    0.48000    0.82076   1.00
C4       0.24977    0.52100    0.74965   1.00
C3c      0.28463    0.54243    0.74756   1.00
H1       0.31222    0.52725    0.74579   1.00
C3d      0.21409    0.54135    0.75137   1.00
C3       0.28458    0.58354    0.74827   1.00
O2       0.31930    0.60248    0.74133   1.00
C3       0.21398    0.58227    0.75284   1.00
H1       0.18600    0.59657    0.75556   1.00
C2       0.24899    0.60439    0.75118   1.00
C5       0.21645    0.47879    0.84000   1.00
H2       0.20719    0.44838    0.84689   1.00
H2       0.19318    0.49266    0.82192   1.00
C5       0.22060    0.50129    0.87815   1.00
H2       0.23091    0.53137    0.87133   1.00
H2       0.24364    0.48698    0.89610   1.00
C5       0.18162    0.50262    0.90044   1.00
H2       0.17101    0.47268    0.90710   1.00
H2       0.15896    0.51811    0.88309   1.00
C5       0.18689    0.52445    0.93935   1.00
C5       0.16401    0.51105    0.71968   1.00
C5       0.33817    0.61070    0.77709   1.00
H2       0.18406    0.49088    0.70405   1.00
H2       0.15871    0.53712    0.70091   1.00
H2       0.34503    0.58300    0.79277   1.00
H2       0.31983    0.62895    0.79700   1.00
H2       0.37385    0.69030    0.79424   1.00
H2       0.13054    0.44247    0.68379   1.00
H2       0.11063    0.48763    0.66435   1.00
C2       0.24828    0.39605    0.75205   1.00
C3       0.24880    0.41597    0.71599   1.00
O2       0.23912    0.39674    0.68198   1.00
C3       0.25021    0.41826    0.78681   1.00
H1       0.25088    0.40385    0.81485   1.00
C3a      0.25019    0.45713    0.71545   1.00
H1       0.24832    0.47202    0.68769   1.00
C3b      0.25032    0.45922    0.78619   1.00
C4       0.25023    0.47900    0.75035   1.00
O3       0.17919    0.52167    0.75645   1.00
C5       0.27314    0.38720    0.66084   1.00
H2       0.29013    0.41391    0.65310   1.00
C5       0.26002    0.36674    0.62358   1.00
H2       0.29229    0.36726    0.67797   1.00
H2       0.25036    0.38932    0.60230   1.00
H2       0.23374    0.34907    0.63091   1.00
C5       0.29201    0.34082    0.60562   1.00
H2       0.31903    0.35824    0.60137   1.00
C5       0.27889    0.32453    0.56587   1.00
H2       0.29851    0.31507    0.62459   1.00
C5       0.12536    0.49017    0.72667   1.00
H2       0.10332    0.51215    0.73604   1.00
H2       0.12928    0.46952    0.75148   1.00
C5       0.11135    0.46800    0.69020   1.00
C5       0.06981    0.45225    0.69687   1.00
H2       0.43693    0.69286    0.76659   1.00
H2       0.44550    0.68447    0.81955   1.00
H2       0.44980    0.64323    0.78449   1.00
H2       0.15707    0.53105    0.95249   1.00
H2       0.20434    0.50551    0.96040   1.00
H2       0.20318    0.55293    0.93396   1.00
H2       0.29114    0.29387    0.56186   1.00
H2       0.24567    0.32344    0.56475   1.00
H2       0.29016    0.34423    0.54155   1.00
H2       0.06139    0.45634    0.72878   1.00
H2       0.04843    0.46884    0.67754   1.00
H2       0.06886    0.41990    0.68921   1.00
C5       -0.13218   0.26659    0.62431   1.00
H2       -0.14745   0.23872    0.63061   1.00
H2       -0.11090   0.25991    0.60078   1.00
C5       -0.16194   0.29718    0.61028   1.00
C5       -0.17123   0.29159    0.56668   1.00
H2       -0.15015   0.32710    0.61485   1.00
O3       0.02000    0.32076    0.74714   1.00
C4       -0.02100   0.24965    0.75023   1.00
C3c      -0.04243   0.24756    0.71537   1.00
H1       -0.02725   0.24579    0.68778   1.00
C3d      -0.04135   0.25137    0.78591   1.00
C3       -0.08354   0.24827    0.71542   1.00
O2       -0.10248   0.24133    0.68070   1.00
C3       -0.08227   0.25284    0.78602   1.00
H1       -0.09657   0.25556    0.81400   1.00
C2       -0.10439   0.25118    0.75101   1.00
C5       0.02121    0.34000    0.78355   1.00
H2       0.05162    0.34689    0.79281   1.00
H2       0.00734    0.32192    0.80682   1.00
C5       -0.00129   0.37815    0.77940   1.00
H2       -0.03137   0.37133    0.76909   1.00
H2       0.01302    0.39610    0.75636   1.00
C5       -0.00262   0.40044    0.81838   1.00
H2       0.02732    0.40710    0.82899   1.00
H2       -0.01811   0.38309    0.84104   1.00
C5       -0.02445   0.43935    0.81311   1.00
C5       -0.01105   0.21968    0.83599   1.00
C5       -0.11070   0.27709    0.66183   1.00
H2       0.00912    0.20405    0.81594   1.00
H2       -0.03712   0.20091    0.84129   1.00
H2       -0.08300   0.29277    0.65497   1.00
H2       -0.12895   0.29700    0.68017   1.00
H2       -0.19030   0.29424    0.62615   1.00
H2       0.05753    0.18379    0.86946   1.00
H2       0.01237    0.16435    0.88937   1.00
C2       0.10395    0.25205    0.75172   1.00
C3       0.08403    0.21599    0.75120   1.00
O2       0.10326    0.18198    0.76088   1.00
C3       0.08174    0.28681    0.74979   1.00
H1       0.09615    0.31485    0.74912   1.00
C3a      0.04287    0.21545    0.74981   1.00
H1       0.02798    0.18769    0.75168   1.00
C3b      0.04078    0.28619    0.74968   1.00
C4       0.02100    0.25035    0.74977   1.00
O3       -0.02167   0.25645    0.82081   1.00
C5       0.11280    0.16084    0.72686   1.00
H2       0.08609    0.15310    0.70987   1.00
C5       0.13326    0.12358    0.73998   1.00
H2       0.13274    0.17797    0.70771   1.00
H2       0.11068    0.10230    0.74964   1.00
H2       0.15093    0.13091    0.76626   1.00
C5       0.15918    0.10562    0.70799   1.00
H2       0.14176    0.10137    0.68097   1.00
C5       0.17547    0.06587    0.72111   1.00
H2       0.18493    0.12459    0.70149   1.00
C5       0.00983    0.22667    0.87464   1.00
H2       -0.01215   0.23604    0.89668   1.00
H2       0.03048    0.25148    0.87072   1.00
C5       0.03200    0.19020    0.88865   1.00
C5       0.04775    0.19687    0.93019   1.00
H2       -0.19286   0.26659    0.56307   1.00
H2       -0.18447   0.31955    0.55450   1.00
H2       -0.14323   0.28449    0.55020   1.00
H2       -0.03105   0.45249    0.84293   1.00
H2       -0.00551   0.46040    0.79566   1.00
H2       -0.05293   0.43396    0.79682   1.00
H2       0.20613    0.06186    0.70886   1.00
H2       0.17656    0.06475    0.75433   1.00
H2       0.15577    0.04155    0.70984   1.00
H2       0.04366    0.22878    0.93861   1.00
H2       0.03116    0.17754    0.95157   1.00
H2       0.08010    0.18921    0.93114   1.00
C5       0.63218    0.26659    0.87569   1.00
H2       0.64745    0.23872    0.86939   1.00
H2       0.61090    0.25991    0.89922   1.00
C5       0.66194    0.29718    0.88972   1.00
C5       0.67123    0.29159    0.93332   1.00
H2       0.65015    0.32710    0.88515   1.00
O3       0.48000    0.32076    0.75286   1.00
C4       0.52100    0.24965    0.74977   1.00
C3c      0.54243    0.24756    0.78463   1.00
H1       0.52725    0.24579    0.81222   1.00
C3d      0.54135    0.25137    0.71409   1.00
C3       0.58354    0.24827    0.78458   1.00
O2       0.60248    0.24133    0.81930   1.00
C3       0.58227    0.25284    0.71398   1.00
H1       0.59657    0.25556    0.68600   1.00
C2       0.60439    0.25118    0.74899   1.00
C5       0.47879    0.34000    0.71645   1.00
H2       0.44838    0.34689    0.70719   1.00
H2       0.49266    0.32192    0.69318   1.00
C5       0.50129    0.37815    0.72060   1.00
H2       0.53137    0.37133    0.73091   1.00
H2       0.48698    0.39610    0.74364   1.00
C5       0.50262    0.40044    0.68162   1.00
H2       0.47268    0.40710    0.67101   1.00
H2       0.51811    0.38309    0.65896   1.00
C5       0.52445    0.43935    0.68689   1.00
C5       0.51105    0.21968    0.66401   1.00
C5       0.61070    0.27709    0.83817   1.00
H2       0.49088    0.20405    0.68406   1.00
H2       0.53712    0.20091    0.65871   1.00
H2       0.58300    0.29277    0.84503   1.00
H2       0.62895    0.29700    0.81983   1.00
H2       0.69030    0.29424    0.87385   1.00
H2       0.44247    0.18379    0.63054   1.00
H2       0.48763    0.16435    0.61063   1.00
C2       0.39605    0.25205    0.74828   1.00
C3       0.41597    0.21599    0.74880   1.00
O2       0.39674    0.18198    0.73912   1.00
C3       0.41826    0.28681    0.75021   1.00
H1       0.40385    0.31485    0.75088   1.00
C3a      0.45713    0.21545    0.75019   1.00
H1       0.47202    0.18769    0.74832   1.00
C3b      0.45922    0.28619    0.75032   1.00
C4       0.47900    0.25035    0.75023   1.00
O3       0.52167    0.25645    0.67919   1.00
C5       0.38720    0.16084    0.77314   1.00
H2       0.41391    0.15310    0.79013   1.00
C5       0.36674    0.12358    0.76002   1.00
H2       0.36726    0.17797    0.79229   1.00
H2       0.38932    0.10230    0.75036   1.00
H2       0.34907    0.13091    0.73374   1.00
C5       0.34082    0.10562    0.79201   1.00
H2       0.35824    0.10137    0.81903   1.00
C5       0.32453    0.06587    0.77889   1.00
H2       0.31507    0.12459    0.79851   1.00
C5       0.49017    0.22667    0.62536   1.00
H2       0.51215    0.23604    0.60332   1.00
H2       0.46952    0.25148    0.62928   1.00
C5       0.46800    0.19020    0.61135   1.00
C5       0.45225    0.19687    0.56981   1.00
H2       0.69286    0.26659    0.93693   1.00
H2       0.68447    0.31955    0.94550   1.00
H2       0.64323    0.28449    0.94980   1.00
H2       0.53105    0.45249    0.65707   1.00
H2       0.50551    0.46040    0.70434   1.00
H2       0.55293    0.43396    0.70318   1.00
H2       0.29387    0.06186    0.79114   1.00
H2       0.32344    0.06475    0.74567   1.00
H2       0.34423    0.04155    0.79016   1.00
H2       0.45634    0.22878    0.56139   1.00
H2       0.46884    0.17754    0.54843   1.00
H2       0.41990    0.18921    0.56886   1.00
C5       0.12431    -0.13218   0.76659   1.00
H2       0.13061    -0.14745   0.73872   1.00
H2       0.10078    -0.11090   0.75991   1.00
C5       0.11028    -0.16194   0.79718   1.00
C5       0.06668    -0.17123   0.79159   1.00
H2       0.11485    -0.15015   0.82710   1.00
O3       0.24714    0.02000    0.82076   1.00
C4       0.25023    -0.02100   0.74965   1.00
C3c      0.21537    -0.04243   0.74756   1.00
H1       0.18778    -0.02725   0.74579   1.00
C3d      0.28591    -0.04135   0.75137   1.00
C3       0.21542    -0.08354   0.74827   1.00
O2       0.18070    -0.10248   0.74133   1.00
C3       0.28602    -0.08227   0.75284   1.00
H1       0.31400    -0.09657   0.75556   1.00
C2       0.25101    -0.10439   0.75118   1.00
C5       0.28355    0.02121    0.84000   1.00
H2       0.29281    0.05162    0.84689   1.00
H2       0.30682    0.00734    0.82192   1.00
C5       0.27940    -0.00129   0.87815   1.00
H2       0.26909    -0.03137   0.87133   1.00
H2       0.25636    0.01302    0.89610   1.00
C5       0.31838    -0.00262   0.90044   1.00
H2       0.32899    0.02732    0.90710   1.00
H2       0.34104    -0.01811   0.88309   1.00
C5       0.31311    -0.02445   0.93935   1.00
C5       0.33599    -0.01105   0.71968   1.00
C5       0.16183    -0.11070   0.77709   1.00
H2       0.31594    0.00912    0.70405   1.00
H2       0.34129    -0.03712   0.70091   1.00
H2       0.15497    -0.08300   0.79277   1.00
H2       0.18017    -0.12895   0.79700   1.00
H2       0.12615    -0.19030   0.79424   1.00
H2       0.36946    0.05753    0.68379   1.00
H2       0.38937    0.01237    0.66435   1.00
C2       0.25172    0.10395    0.75205   1.00
C3       0.25120    0.08403    0.71599   1.00
O2       0.26088    0.10326    0.68198   1.00
C3       0.24979    0.08174    0.78681   1.00
H1       0.24912    0.09615    0.81485   1.00
C3a      0.24981    0.04287    0.71545   1.00
H1       0.25168    0.02798    0.68769   1.00
C3b      0.24968    0.04078    0.78619   1.00
C4       0.24977    0.02100    0.75035   1.00
O3       0.32081    -0.02167   0.75645   1.00
C5       0.22686    0.11280    0.66084   1.00
H2       0.20987    0.08609    0.65310   1.00
C5       0.23998    0.13326    0.62358   1.00
H2       0.20771    0.13274    0.67797   1.00
H2       0.24964    0.11068    0.60230   1.00
H2       0.26626    0.15093    0.63091   1.00
C5       0.20799    0.15918    0.60562   1.00
H2       0.18097    0.14176    0.60137   1.00
C5       0.22111    0.17547    0.56587   1.00
H2       0.20149    0.18493    0.62459   1.00
C5       0.37464    0.00983    0.72667   1.00
H2       0.39668    -0.01215   0.73604   1.00
H2       0.37072    0.03048    0.75148   1.00
C5       0.38865    0.03200    0.69020   1.00
C5       0.43019    0.04775    0.69687   1.00
H2       0.06307    -0.19286   0.76659   1.00
H2       0.05450    -0.18447   0.81955   1.00
H2       0.05020    -0.14323   0.78449   1.00
H2       0.34293    -0.03105   0.95249   1.00
H2       0.29566    -0.00551   0.96040   1.00
H2       0.29682    -0.05293   0.93396   1.00
H2       0.20886    0.20613    0.56186   1.00
H2       0.25433    0.17656    0.56475   1.00
H2       0.20984    0.15577    0.54155   1.00
H2       0.43861    0.04366    0.72878   1.00
H2       0.45157    0.03116    0.67754   1.00
H2       0.43114    0.08010    0.68921   1.00
C5       0.26659    0.12431    0.36782   1.00
H2       0.23872    0.13061    0.35255   1.00
H2       0.25991    0.10078    0.38910   1.00
C5       0.29718    0.11028    0.33806   1.00
C5       0.29159    0.06668    0.32877   1.00
H2       0.32710    0.11485    0.34985   1.00
O3       0.32076    0.24714    0.52000   1.00
C4       0.24965    0.25023    0.47900   1.00
C3c      0.24756    0.21537    0.45757   1.00
H1       0.24579    0.18778    0.47275   1.00
C3d      0.25137    0.28591    0.45865   1.00
C3       0.24827    0.21542    0.41646   1.00
O2       0.24133    0.18070    0.39752   1.00
C3       0.25284    0.28602    0.41773   1.00
H1       0.25556    0.31400    0.40343   1.00
C2       0.25118    0.25101    0.39561   1.00
C5       0.34000    0.28355    0.52121   1.00
H2       0.34689    0.29281    0.55162   1.00
H2       0.32192    0.30682    0.50734   1.00
C5       0.37815    0.27940    0.49871   1.00
H2       0.37133    0.26909    0.46863   1.00
H2       0.39610    0.25636    0.51302   1.00
C5       0.40044    0.31838    0.49738   1.00
H2       0.40710    0.32899    0.52732   1.00
H2       0.38309    0.34104    0.48189   1.00
C5       0.43935    0.31311    0.47555   1.00
C5       0.21968    0.33599    0.48895   1.00
C5       0.27709    0.16183    0.38930   1.00
H2       0.20405    0.31594    0.50912   1.00
H2       0.20091    0.34129    0.46288   1.00
H2       0.29277    0.15497    0.41700   1.00
H2       0.29700    0.18017    0.37105   1.00
H2       0.29424    0.12615    0.30970   1.00
H2       0.18379    0.36946    0.55753   1.00
H2       0.16435    0.38937    0.51237   1.00
C2       0.25205    0.25172    0.60395   1.00
C3       0.21599    0.25120    0.58403   1.00
O2       0.18198    0.26088    0.60326   1.00
C3       0.28681    0.24979    0.58174   1.00
H1       0.31485    0.24912    0.59615   1.00
C3a      0.21545    0.24981    0.54287   1.00
H1       0.18769    0.25168    0.52798   1.00
C3b      0.28619    0.24968    0.54078   1.00
C4       0.25035    0.24977    0.52100   1.00
O3       0.25645    0.32081    0.47833   1.00
C5       0.16084    0.22686    0.61280   1.00
H2       0.15310    0.20987    0.58609   1.00
C5       0.12358    0.23998    0.63326   1.00
H2       0.17797    0.20771    0.63274   1.00
H2       0.10230    0.24964    0.61068   1.00
H2       0.13091    0.26626    0.65093   1.00
C5       0.10562    0.20799    0.65918   1.00
H2       0.10137    0.18097    0.64176   1.00
C5       0.06587    0.22111    0.67547   1.00
H2       0.12459    0.20149    0.68493   1.00
C5       0.22667    0.37464    0.50983   1.00
H2       0.23604    0.39668    0.48785   1.00
H2       0.25148    0.37072    0.53048   1.00
C5       0.19020    0.38865    0.53200   1.00
C5       0.19687    0.43019    0.54775   1.00
H2       0.26659    0.06307    0.30714   1.00
H2       0.31955    0.05450    0.31553   1.00
H2       0.28449    0.05020    0.35677   1.00
H2       0.45249    0.34293    0.46895   1.00
H2       0.46040    0.29566    0.49449   1.00
H2       0.43396    0.29682    0.44707   1.00
H2       0.06186    0.20886    0.70613   1.00
H2       0.06475    0.25433    0.67656   1.00
H2       0.04155    0.20984    0.65577   1.00
H2       0.22878    0.43861    0.54366   1.00
H2       0.17754    0.45157    0.53116   1.00
H2       0.18921    0.43114    0.58010   1.00
C5       0.26659    0.87569    0.63218   1.00
H2       0.23872    0.86939    0.64745   1.00
H2       0.25991    0.89922    0.61090   1.00
C5       0.29718    0.88972    0.66194   1.00
C5       0.29159    0.93332    0.67123   1.00
H2       0.32710    0.88515    0.65015   1.00
O3       0.32076    0.75286    0.48000   1.00
C4       0.24965    0.74977    0.52100   1.00
C3c      0.24756    0.78463    0.54243   1.00
H1       0.24579    0.81222    0.52725   1.00
C3d      0.25137    0.71409    0.54135   1.00
C3       0.24827    0.78458    0.58354   1.00
O2       0.24133    0.81930    0.60248   1.00
C3       0.25284    0.71398    0.58227   1.00
H1       0.25556    0.68600    0.59657   1.00
C2       0.25118    0.74899    0.60439   1.00
C5       0.34000    0.71645    0.47879   1.00
H2       0.34689    0.70719    0.44838   1.00
H2       0.32192    0.69318    0.49266   1.00
C5       0.37815    0.72060    0.50129   1.00
H2       0.37133    0.73091    0.53137   1.00
H2       0.39610    0.74364    0.48698   1.00
C5       0.40044    0.68162    0.50262   1.00
H2       0.40710    0.67101    0.47268   1.00
H2       0.38309    0.65896    0.51811   1.00
C5       0.43935    0.68689    0.52445   1.00
C5       0.21968    0.66401    0.51105   1.00
C5       0.27709    0.83817    0.61070   1.00
H2       0.20405    0.68406    0.49088   1.00
H2       0.20091    0.65871    0.53712   1.00
H2       0.29277    0.84503    0.58300   1.00
H2       0.29700    0.81983    0.62895   1.00
H2       0.29424    0.87385    0.69030   1.00
H2       0.18379    0.63054    0.44247   1.00
H2       0.16435    0.61063    0.48763   1.00
C2       0.25205    0.74828    0.39605   1.00
C3       0.21599    0.74880    0.41597   1.00
O2       0.18198    0.73912    0.39674   1.00
C3       0.28681    0.75021    0.41826   1.00
H1       0.31485    0.75088    0.40385   1.00
C3a      0.21545    0.75019    0.45713   1.00
H1       0.18769    0.74832    0.47202   1.00
C3b      0.28619    0.75032    0.45922   1.00
C4       0.25035    0.75023    0.47900   1.00
O3       0.25645    0.67919    0.52167   1.00
C5       0.16084    0.77314    0.38720   1.00
H2       0.15310    0.79013    0.41391   1.00
C5       0.12358    0.76002    0.36674   1.00
H2       0.17797    0.79229    0.36726   1.00
H2       0.10230    0.75036    0.38932   1.00
H2       0.13091    0.73374    0.34907   1.00
C5       0.10562    0.79201    0.34082   1.00
H2       0.10137    0.81903    0.35824   1.00
C5       0.06587    0.77889    0.32453   1.00
H2       0.12459    0.79851    0.31507   1.00
C5       0.22667    0.62536    0.49017   1.00
H2       0.23604    0.60332    0.51215   1.00
H2       0.25148    0.62928    0.46952   1.00
C5       0.19020    0.61135    0.46800   1.00
C5       0.19687    0.56981    0.45225   1.00
H2       0.26659    0.93693    0.69286   1.00
H2       0.31955    0.94550    0.68447   1.00
H2       0.28449    0.94980    0.64323   1.00
H2       0.45249    0.65707    0.53105   1.00
H2       0.46040    0.70434    0.50551   1.00
H2       0.43396    0.70318    0.55293   1.00
H2       0.06186    0.79114    0.29387   1.00
H2       0.06475    0.74567    0.32344   1.00
H2       0.04155    0.79016    0.34423   1.00
H2       0.22878    0.56139    0.45634   1.00
H2       0.17754    0.54843    0.46884   1.00
H2       0.18921    0.56886    0.41990   1.00
C5       0.37569    1.13218    0.26659   1.00
H2       0.36939    1.14745    0.23872   1.00
H2       0.39922    1.11090    0.25991   1.00
C5       0.38972    1.16194    0.29718   1.00
C5       0.43332    1.17123    0.29159   1.00
H2       0.38515    1.15015    0.32710   1.00
O3       0.25286    0.98000    0.32076   1.00
C4       0.24977    1.02100    0.24965   1.00
C3c      0.28463    1.04243    0.24756   1.00
H1       0.31222    1.02725    0.24579   1.00
C3d      0.21409    1.04135    0.25137   1.00
C3       0.28458    1.08354    0.24827   1.00
O2       0.31930    1.10248    0.24133   1.00
C3       0.21398    1.08227    0.25284   1.00
H1       0.18600    1.09657    0.25556   1.00
C2       0.24899    1.10439    0.25118   1.00
C5       0.21645    0.97879    0.34000   1.00
H2       0.20719    0.94838    0.34689   1.00
H2       0.19318    0.99266    0.32192   1.00
C5       0.22060    1.00129    0.37815   1.00
H2       0.23091    1.03137    0.37133   1.00
H2       0.24364    0.98698    0.39610   1.00
C5       0.18162    1.00262    0.40044   1.00
H2       0.17101    0.97268    0.40710   1.00
H2       0.15896    1.01811    0.38309   1.00
C5       0.18689    1.02445    0.43935   1.00
C5       0.16401    1.01105    0.21968   1.00
C5       0.33817    1.11070    0.27709   1.00
H2       0.18406    0.99088    0.20405   1.00
H2       0.15871    1.03712    0.20091   1.00
H2       0.34503    1.08300    0.29277   1.00
H2       0.31983    1.12895    0.29700   1.00
H2       0.37385    1.19030    0.29424   1.00
H2       0.13054    0.94247    0.18379   1.00
H2       0.11063    0.98763    0.16435   1.00
C2       0.24828    0.89605    0.25205   1.00
C3       0.24880    0.91597    0.21599   1.00
O2       0.23912    0.89674    0.18198   1.00
C3       0.25021    0.91826    0.28681   1.00
H1       0.25088    0.90385    0.31485   1.00
C3a      0.25019    0.95713    0.21545   1.00
H1       0.24832    0.97202    0.18769   1.00
C3b      0.25032    0.95922    0.28619   1.00
C4       0.25023    0.97900    0.25035   1.00
O3       0.17919    1.02167    0.25645   1.00
C5       0.27314    0.88720    0.16084   1.00
H2       0.29013    0.91391    0.15310   1.00
C5       0.26002    0.86674    0.12358   1.00
H2       0.29229    0.86726    0.17797   1.00
H2       0.25036    0.88932    0.10230   1.00
H2       0.23374    0.84907    0.13091   1.00
C5       0.29201    0.84082    0.10562   1.00
H2       0.31903    0.85824    0.10137   1.00
C5       0.27889    0.82453    0.06587   1.00
H2       0.29851    0.81507    0.12459   1.00
C5       0.12536    0.99017    0.22667   1.00
H2       0.10332    1.01215    0.23604   1.00
H2       0.12928    0.96952    0.25148   1.00
C5       0.11135    0.96800    0.19020   1.00
C5       0.06981    0.95225    0.19687   1.00
H2       0.43693    1.19286    0.26659   1.00
H2       0.44550    1.18447    0.31955   1.00
H2       0.44980    1.14323    0.28449   1.00
H2       0.15707    1.03105    0.45249   1.00
H2       0.20434    1.00551    0.46040   1.00
H2       0.20318    1.05293    0.43396   1.00
H2       0.29114    0.79387    0.06186   1.00
H2       0.24567    0.82344    0.06475   1.00
H2       0.29016    0.84423    0.04155   1.00
H2       0.06139    0.95634    0.22878   1.00
H2       0.04843    0.96884    0.17754   1.00
H2       0.06886    0.91990    0.18921   1.00
C5       -0.13218   0.76659    0.12431   1.00
H2       -0.14745   0.73872    0.13061   1.00
H2       -0.11090   0.75991    0.10078   1.00
C5       -0.16194   0.79718    0.11028   1.00
C5       -0.17123   0.79159    0.06668   1.00
H2       -0.15015   0.82710    0.11485   1.00
O3       0.02000    0.82076    0.24714   1.00
C4       -0.02100   0.74965    0.25023   1.00
C3c      -0.04243   0.74756    0.21537   1.00
H1       -0.02725   0.74579    0.18778   1.00
C3d      -0.04135   0.75137    0.28591   1.00
C3       -0.08354   0.74827    0.21542   1.00
O2       -0.10248   0.74133    0.18070   1.00
C3       -0.08227   0.75284    0.28602   1.00
H1       -0.09657   0.75556    0.31400   1.00
C2       -0.10439   0.75118    0.25101   1.00
C5       0.02121    0.84000    0.28355   1.00
H2       0.05162    0.84689    0.29281   1.00
H2       0.00734    0.82192    0.30682   1.00
C5       -0.00129   0.87815    0.27940   1.00
H2       -0.03137   0.87133    0.26909   1.00
H2       0.01302    0.89610    0.25636   1.00
C5       -0.00262   0.90044    0.31838   1.00
H2       0.02732    0.90710    0.32899   1.00
H2       -0.01811   0.88309    0.34104   1.00
C5       -0.02445   0.93935    0.31311   1.00
C5       -0.01105   0.71968    0.33599   1.00
C5       -0.11070   0.77709    0.16183   1.00
H2       0.00912    0.70405    0.31594   1.00
H2       -0.03712   0.70091    0.34129   1.00
H2       -0.08300   0.79277    0.15497   1.00
H2       -0.12895   0.79700    0.18017   1.00
H2       -0.19030   0.79424    0.12615   1.00
H2       0.05753    0.68379    0.36946   1.00
H2       0.01237    0.66435    0.38937   1.00
C2       0.10395    0.75205    0.25172   1.00
C3       0.08403    0.71599    0.25120   1.00
O2       0.10326    0.68198    0.26088   1.00
C3       0.08174    0.78681    0.24979   1.00
H1       0.09615    0.81485    0.24912   1.00
C3a      0.04287    0.71545    0.24981   1.00
H1       0.02798    0.68769    0.25168   1.00
C3b      0.04078    0.78619    0.24968   1.00
C4       0.02100    0.75035    0.24977   1.00
O3       -0.02167   0.75645    0.32081   1.00
C5       0.11280    0.66084    0.22686   1.00
H2       0.08609    0.65310    0.20987   1.00
C5       0.13326    0.62358    0.23998   1.00
H2       0.13274    0.67797    0.20771   1.00
H2       0.11068    0.60230    0.24964   1.00
H2       0.15093    0.63091    0.26626   1.00
C5       0.15918    0.60562    0.20799   1.00
H2       0.14176    0.60137    0.18097   1.00
C5       0.17547    0.56587    0.22111   1.00
H2       0.18493    0.62459    0.20149   1.00
C5       0.00983    0.72667    0.37464   1.00
H2       -0.01215   0.73604    0.39668   1.00
H2       0.03048    0.75148    0.37072   1.00
C5       0.03200    0.69020    0.38865   1.00
C5       0.04775    0.69687    0.43019   1.00
H2       -0.19286   0.76659    0.06307   1.00
H2       -0.18447   0.81955    0.05450   1.00
H2       -0.14323   0.78449    0.05020   1.00
H2       -0.03105   0.95249    0.34293   1.00
H2       -0.00551   0.96040    0.29566   1.00
H2       -0.05293   0.93396    0.29682   1.00
H2       0.20613    0.56186    0.20886   1.00
H2       0.17656    0.56475    0.25433   1.00
H2       0.15577    0.54155    0.20984   1.00
H2       0.04366    0.72878    0.43861   1.00
H2       0.03116    0.67754    0.45157   1.00
H2       0.08010    0.68921    0.43114   1.00
C5       0.63218    0.76659    0.37569   1.00
H2       0.64745    0.73872    0.36939   1.00
H2       0.61090    0.75991    0.39922   1.00
C5       0.66194    0.79718    0.38972   1.00
C5       0.67123    0.79159    0.43332   1.00
H2       0.65015    0.82710    0.38515   1.00
O3       0.48000    0.82076    0.25286   1.00
C4       0.52100    0.74965    0.24977   1.00
C3c      0.54243    0.74756    0.28463   1.00
H1       0.52725    0.74579    0.31222   1.00
C3d      0.54135    0.75137    0.21409   1.00
C3       0.58354    0.74827    0.28458   1.00
O2       0.60248    0.74133    0.31930   1.00
C3       0.58227    0.75284    0.21398   1.00
H1       0.59657    0.75556    0.18600   1.00
C2       0.60439    0.75118    0.24899   1.00
C5       0.47879    0.84000    0.21645   1.00
H2       0.44838    0.84689    0.20719   1.00
H2       0.49266    0.82192    0.19318   1.00
C5       0.50129    0.87815    0.22060   1.00
H2       0.53137    0.87133    0.23091   1.00
H2       0.48698    0.89610    0.24364   1.00
C5       0.50262    0.90044    0.18162   1.00
H2       0.47268    0.90710    0.17101   1.00
H2       0.51811    0.88309    0.15896   1.00
C5       0.52445    0.93935    0.18689   1.00
C5       0.51105    0.71968    0.16401   1.00
C5       0.61070    0.77709    0.33817   1.00
H2       0.49088    0.70405    0.18406   1.00
H2       0.53712    0.70091    0.15871   1.00
H2       0.58300    0.79277    0.34503   1.00
H2       0.62895    0.79700    0.31983   1.00
H2       0.69030    0.79424    0.37385   1.00
H2       0.44247    0.68379    0.13054   1.00
H2       0.48763    0.66435    0.11063   1.00
C2       0.39605    0.75205    0.24828   1.00
C3       0.41597    0.71599    0.24880   1.00
O2       0.39674    0.68198    0.23912   1.00
C3       0.41826    0.78681    0.25021   1.00
H1       0.40385    0.81485    0.25088   1.00
C3a      0.45713    0.71545    0.25019   1.00
H1       0.47202    0.68769    0.24832   1.00
C3b      0.45922    0.78619    0.25032   1.00
C4       0.47900    0.75035    0.25023   1.00
O3       0.52167    0.75645    0.17919   1.00
C5       0.38720    0.66084    0.27314   1.00
H2       0.41391    0.65310    0.29013   1.00
C5       0.36674    0.62358    0.26002   1.00
H2       0.36726    0.67797    0.29229   1.00
H2       0.38932    0.60230    0.25036   1.00
H2       0.34907    0.63091    0.23374   1.00
C5       0.34082    0.60562    0.29201   1.00
H2       0.35824    0.60137    0.31903   1.00
C5       0.32453    0.56587    0.27889   1.00
H2       0.31507    0.62459    0.29851   1.00
C5       0.49017    0.72667    0.12536   1.00
H2       0.51215    0.73604    0.10332   1.00
H2       0.46952    0.75148    0.12928   1.00
C5       0.46800    0.69020    0.11135   1.00
C5       0.45225    0.69687    0.06981   1.00
H2       0.69286    0.76659    0.43693   1.00
H2       0.68447    0.81955    0.44550   1.00
H2       0.64323    0.78449    0.44980   1.00
H2       0.53105    0.95249    0.15707   1.00
H2       0.50551    0.96040    0.20434   1.00
H2       0.55293    0.93396    0.20318   1.00
H2       0.29387    0.56186    0.29114   1.00
H2       0.32344    0.56475    0.24567   1.00
H2       0.34423    0.54155    0.29016   1.00
H2       0.45634    0.72878    0.06139   1.00
H2       0.46884    0.67754    0.04843   1.00
H2       0.41990    0.68921    0.06886   1.00
C5       0.12431    0.36782    0.26659   1.00
H2       0.13061    0.35255    0.23872   1.00
H2       0.10078    0.38910    0.25991   1.00
C5       0.11028    0.33806    0.29718   1.00
C5       0.06668    0.32877    0.29159   1.00
H2       0.11485    0.34985    0.32710   1.00
O3       0.24714    0.52000    0.32076   1.00
C4       0.25023    0.47900    0.24965   1.00
C3c      0.21537    0.45757    0.24756   1.00
H1       0.18778    0.47275    0.24579   1.00
C3d      0.28591    0.45865    0.25137   1.00
C3       0.21542    0.41646    0.24827   1.00
O2       0.18070    0.39752    0.24133   1.00
C3       0.28602    0.41773    0.25284   1.00
H1       0.31400    0.40343    0.25556   1.00
C2       0.25101    0.39561    0.25118   1.00
C5       0.28355    0.52121    0.34000   1.00
H2       0.29281    0.55162    0.34689   1.00
H2       0.30682    0.50734    0.32192   1.00
C5       0.27940    0.49871    0.37815   1.00
H2       0.26909    0.46863    0.37133   1.00
H2       0.25636    0.51302    0.39610   1.00
C5       0.31838    0.49738    0.40044   1.00
H2       0.32899    0.52732    0.40710   1.00
H2       0.34104    0.48189    0.38309   1.00
C5       0.31311    0.47555    0.43935   1.00
C5       0.33599    0.48895    0.21968   1.00
C5       0.16183    0.38930    0.27709   1.00
H2       0.31594    0.50912    0.20405   1.00
H2       0.34129    0.46288    0.20091   1.00
H2       0.15497    0.41700    0.29277   1.00
H2       0.18017    0.37105    0.29700   1.00
H2       0.12615    0.30970    0.29424   1.00
H2       0.36946    0.55753    0.18379   1.00
H2       0.38937    0.51237    0.16435   1.00
C2       0.25172    0.60395    0.25205   1.00
C3       0.25120    0.58403    0.21599   1.00
O2       0.26088    0.60326    0.18198   1.00
C3       0.24979    0.58174    0.28681   1.00
H1       0.24912    0.59615    0.31485   1.00
C3a      0.24981    0.54287    0.21545   1.00
H1       0.25168    0.52798    0.18769   1.00
C3b      0.24968    0.54078    0.28619   1.00
C4       0.24977    0.52100    0.25035   1.00
O3       0.32081    0.47833    0.25645   1.00
C5       0.22686    0.61280    0.16084   1.00
H2       0.20987    0.58609    0.15310   1.00
C5       0.23998    0.63326    0.12358   1.00
H2       0.20771    0.63274    0.17797   1.00
H2       0.24964    0.61068    0.10230   1.00
H2       0.26626    0.65093    0.13091   1.00
C5       0.20799    0.65918    0.10562   1.00
H2       0.18097    0.64176    0.10137   1.00
C5       0.22111    0.67547    0.06587   1.00
H2       0.20149    0.68493    0.12459   1.00
C5       0.37464    0.50983    0.22667   1.00
H2       0.39668    0.48785    0.23604   1.00
H2       0.37072    0.53048    0.25148   1.00
C5       0.38865    0.53200    0.19020   1.00
C5       0.43019    0.54775    0.19687   1.00
H2       0.06307    0.30714    0.26659   1.00
H2       0.05450    0.31553    0.31955   1.00
H2       0.05020    0.35677    0.28449   1.00
H2       0.34293    0.46895    0.45249   1.00
H2       0.29566    0.49449    0.46040   1.00
H2       0.29682    0.44707    0.43396   1.00
H2       0.20886    0.70613    0.06186   1.00
H2       0.25433    0.67656    0.06475   1.00
H2       0.20984    0.65577    0.04155   1.00
H2       0.43861    0.54366    0.22878   1.00
H2       0.45157    0.53116    0.17754   1.00
H2       0.43114    0.58010    0.18921   1.00
C5       0.26659    0.62431    -0.13218   1.00
H2       0.23872    0.63061    -0.14745   1.00
H2       0.25991    0.60078    -0.11090   1.00
C5       0.29718    0.61028    -0.16194   1.00
C5       0.29159    0.56668    -0.17123   1.00
H2       0.32710    0.61485    -0.15015   1.00
O3       0.32076    0.74714    0.02000   1.00
C4       0.24965    0.75023    -0.02100   1.00
C3c      0.24756    0.71537    -0.04243   1.00
H1       0.24579    0.68778    -0.02725   1.00
C3d      0.25137    0.78591    -0.04135   1.00
C3       0.24827    0.71542    -0.08354   1.00
O2       0.24133    0.68070    -0.10248   1.00
C3       0.25284    0.78602    -0.08227   1.00
H1       0.25556    0.81400    -0.09657   1.00
C2       0.25118    0.75101    -0.10439   1.00
C5       0.34000    0.78355    0.02121   1.00
H2       0.34689    0.79281    0.05162   1.00
H2       0.32192    0.80682    0.00734   1.00
C5       0.37815    0.77940    -0.00129   1.00
H2       0.37133    0.76909    -0.03137   1.00
H2       0.39610    0.75636    0.01302   1.00
C5       0.40044    0.81838    -0.00262   1.00
H2       0.40710    0.82899    0.02732   1.00
H2       0.38309    0.84104    -0.01811   1.00
C5       0.43935    0.81311    -0.02445   1.00
C5       0.21968    0.83599    -0.01105   1.00
C5       0.27709    0.66183    -0.11070   1.00
H2       0.20405    0.81594    0.00912   1.00
H2       0.20091    0.84129    -0.03712   1.00
H2       0.29277    0.65497    -0.08300   1.00
H2       0.29700    0.68017    -0.12895   1.00
H2       0.29424    0.62615    -0.19030   1.00
H2       0.18379    0.86946    0.05753   1.00
H2       0.16435    0.88937    0.01237   1.00
C2       0.25205    0.75172    0.10395   1.00
C3       0.21599    0.75120    0.08403   1.00
O2       0.18198    0.76088    0.10326   1.00
C3       0.28681    0.74979    0.08174   1.00
H1       0.31485    0.74912    0.09615   1.00
C3a      0.21545    0.74981    0.04287   1.00
H1       0.18769    0.75168    0.02798   1.00
C3b      0.28619    0.74968    0.04078   1.00
C4       0.25035    0.74977    0.02100   1.00
O3       0.25645    0.82081    -0.02167   1.00
C5       0.16084    0.72686    0.11280   1.00
H2       0.15310    0.70987    0.08609   1.00
C5       0.12358    0.73998    0.13326   1.00
H2       0.17797    0.70771    0.13274   1.00
H2       0.10230    0.74964    0.11068   1.00
H2       0.13091    0.76626    0.15093   1.00
C5       0.10562    0.70799    0.15918   1.00
H2       0.10137    0.68097    0.14176   1.00
C5       0.06587    0.72111    0.17547   1.00
H2       0.12459    0.70149    0.18493   1.00
C5       0.22667    0.87464    0.00983   1.00
H2       0.23604    0.89668    -0.01215   1.00
H2       0.25148    0.87072    0.03048   1.00
C5       0.19020    0.88865    0.03200   1.00
C5       0.19687    0.93019    0.04775   1.00
H2       0.26659    0.56307    -0.19286   1.00
H2       0.31955    0.55450    -0.18447   1.00
H2       0.28449    0.55020    -0.14323   1.00
H2       0.45249    0.84293    -0.03105   1.00
H2       0.46040    0.79566    -0.00551   1.00
H2       0.43396    0.79682    -0.05293   1.00
H2       0.06186    0.70886    0.20613   1.00
H2       0.06475    0.75433    0.17656   1.00
H2       0.04155    0.70984    0.15577   1.00
H2       0.22878    0.93861    0.04366   1.00
H2       0.17754    0.95157    0.03116   1.00
H2       0.18921    0.93114    0.08010   1.00
C5       0.76659    0.37569    0.63218   1.00
H2       0.73872    0.36939    0.64745   1.00
H2       0.75991    0.39922    0.61090   1.00
C5       0.79718    0.38972    0.66194   1.00
C5       0.79159    0.43332    0.67123   1.00
H2       0.82710    0.38515    0.65015   1.00
O3       0.82076    0.25286    0.48000   1.00
C4       0.74965    0.24977    0.52100   1.00
C3c      0.74756    0.28463    0.54243   1.00
H1       0.74579    0.31222    0.52725   1.00
C3d      0.75137    0.21409    0.54135   1.00
C3       0.74827    0.28458    0.58354   1.00
O2       0.74133    0.31930    0.60248   1.00
C3       0.75284    0.21398    0.58227   1.00
H1       0.75556    0.18600    0.59657   1.00
C2       0.75118    0.24899    0.60439   1.00
C5       0.84000    0.21645    0.47879   1.00
H2       0.84689    0.20719    0.44838   1.00
H2       0.82192    0.19318    0.49266   1.00
C5       0.87815    0.22060    0.50129   1.00
H2       0.87133    0.23091    0.53137   1.00
H2       0.89610    0.24364    0.48698   1.00
C5       0.90044    0.18162    0.50262   1.00
H2       0.90710    0.17101    0.47268   1.00
H2       0.88309    0.15896    0.51811   1.00
C5       0.93935    0.18689    0.52445   1.00
C5       0.71968    0.16401    0.51105   1.00
C5       0.77709    0.33817    0.61070   1.00
H2       0.70405    0.18406    0.49088   1.00
H2       0.70091    0.15871    0.53712   1.00
H2       0.79277    0.34503    0.58300   1.00
H2       0.79700    0.31983    0.62895   1.00
H2       0.79424    0.37385    0.69030   1.00
H2       0.68379    0.13054    0.44247   1.00
H2       0.66435    0.11063    0.48763   1.00
C2       0.75205    0.24828    0.39605   1.00
C3       0.71599    0.24880    0.41597   1.00
O2       0.68198    0.23912    0.39674   1.00
C3       0.78681    0.25021    0.41826   1.00
H1       0.81485    0.25088    0.40385   1.00
C3a      0.71545    0.25019    0.45713   1.00
H1       0.68769    0.24832    0.47202   1.00
C3b      0.78619    0.25032    0.45922   1.00
C4       0.75035    0.25023    0.47900   1.00
O3       0.75645    0.17919    0.52167   1.00
C5       0.66084    0.27314    0.38720   1.00
H2       0.65310    0.29013    0.41391   1.00
C5       0.62358    0.26002    0.36674   1.00
H2       0.67797    0.29229    0.36726   1.00
H2       0.60230    0.25036    0.38932   1.00
H2       0.63091    0.23374    0.34907   1.00
C5       0.60562    0.29201    0.34082   1.00
H2       0.60137    0.31903    0.35824   1.00
C5       0.56587    0.27889    0.32453   1.00
H2       0.62459    0.29851    0.31507   1.00
C5       0.72667    0.12536    0.49017   1.00
H2       0.73604    0.10332    0.51215   1.00
H2       0.75148    0.12928    0.46952   1.00
C5       0.69020    0.11135    0.46800   1.00
C5       0.69687    0.06981    0.45225   1.00
H2       0.76659    0.43693    0.69286   1.00
H2       0.81955    0.44550    0.68447   1.00
H2       0.78449    0.44980    0.64323   1.00
H2       0.95249    0.15707    0.53105   1.00
H2       0.96040    0.20434    0.50551   1.00
H2       0.93396    0.20318    0.55293   1.00
H2       0.56186    0.29114    0.29387   1.00
H2       0.56475    0.24567    0.32344   1.00
H2       0.54155    0.29016    0.34423   1.00
H2       0.72878    0.06139    0.45634   1.00
H2       0.67754    0.04843    0.46884   1.00
H2       0.68921    0.06886    0.41990   1.00
C5       0.87569    0.63218    0.26659   1.00
H2       0.86939    0.64745    0.23872   1.00
H2       0.89922    0.61090    0.25991   1.00
C5       0.88972    0.66194    0.29718   1.00
C5       0.93332    0.67123    0.29159   1.00
H2       0.88515    0.65015    0.32710   1.00
O3       0.75286    0.48000    0.32076   1.00
C4       0.74977    0.52100    0.24965   1.00
C3c      0.78463    0.54243    0.24756   1.00
H1       0.81222    0.52725    0.24579   1.00
C3d      0.71409    0.54135    0.25137   1.00
C3       0.78458    0.58354    0.24827   1.00
O2       0.81930    0.60248    0.24133   1.00
C3       0.71398    0.58227    0.25284   1.00
H1       0.68600    0.59657    0.25556   1.00
C2       0.74899    0.60439    0.25118   1.00
C5       0.71645    0.47879    0.34000   1.00
H2       0.70719    0.44838    0.34689   1.00
H2       0.69318    0.49266    0.32192   1.00
C5       0.72060    0.50129    0.37815   1.00
H2       0.73091    0.53137    0.37133   1.00
H2       0.74364    0.48698    0.39610   1.00
C5       0.68162    0.50262    0.40044   1.00
H2       0.67101    0.47268    0.40710   1.00
H2       0.65896    0.51811    0.38309   1.00
C5       0.68689    0.52445    0.43935   1.00
C5       0.66401    0.51105    0.21968   1.00
C5       0.83817    0.61070    0.27709   1.00
H2       0.68406    0.49088    0.20405   1.00
H2       0.65871    0.53712    0.20091   1.00
H2       0.84503    0.58300    0.29277   1.00
H2       0.81983    0.62895    0.29700   1.00
H2       0.87385    0.69030    0.29424   1.00
H2       0.63054    0.44247    0.18379   1.00
H2       0.61063    0.48763    0.16435   1.00
C2       0.74828    0.39605    0.25205   1.00
C3       0.74880    0.41597    0.21599   1.00
O2       0.73912    0.39674    0.18198   1.00
C3       0.75021    0.41826    0.28681   1.00
H1       0.75088    0.40385    0.31485   1.00
C3a      0.75019    0.45713    0.21545   1.00
H1       0.74832    0.47202    0.18769   1.00
C3b      0.75032    0.45922    0.28619   1.00
C4       0.75023    0.47900    0.25035   1.00
O3       0.67919    0.52167    0.25645   1.00
C5       0.77314    0.38720    0.16084   1.00
H2       0.79013    0.41391    0.15310   1.00
C5       0.76002    0.36674    0.12358   1.00
H2       0.79229    0.36726    0.17797   1.00
H2       0.75036    0.38932    0.10230   1.00
H2       0.73374    0.34907    0.13091   1.00
C5       0.79201    0.34082    0.10562   1.00
H2       0.81903    0.35824    0.10137   1.00
C5       0.77889    0.32453    0.06587   1.00
H2       0.79851    0.31507    0.12459   1.00
C5       0.62536    0.49017    0.22667   1.00
H2       0.60332    0.51215    0.23604   1.00
H2       0.62928    0.46952    0.25148   1.00
C5       0.61135    0.46800    0.19020   1.00
C5       0.56981    0.45225    0.19687   1.00
H2       0.93693    0.69286    0.26659   1.00
H2       0.94550    0.68447    0.31955   1.00
H2       0.94980    0.64323    0.28449   1.00
H2       0.65707    0.53105    0.45249   1.00
H2       0.70434    0.50551    0.46040   1.00
H2       0.70318    0.55293    0.43396   1.00
H2       0.79114    0.29387    0.06186   1.00
H2       0.74567    0.32344    0.06475   1.00
H2       0.79016    0.34423    0.04155   1.00
H2       0.56139    0.45634    0.22878   1.00
H2       0.54843    0.46884    0.17754   1.00
H2       0.56886    0.41990    0.18921   1.00
C5       0.36782    0.26659    0.12431   1.00
H2       0.35255    0.23872    0.13061   1.00
H2       0.38910    0.25991    0.10078   1.00
C5       0.33806    0.29718    0.11028   1.00
C5       0.32877    0.29159    0.06668   1.00
H2       0.34985    0.32710    0.11485   1.00
O3       0.52000    0.32076    0.24714   1.00
C4       0.47900    0.24965    0.25023   1.00
C3c      0.45757    0.24756    0.21537   1.00
H1       0.47275    0.24579    0.18778   1.00
C3d      0.45865    0.25137    0.28591   1.00
C3       0.41646    0.24827    0.21542   1.00
O2       0.39752    0.24133    0.18070   1.00
C3       0.41773    0.25284    0.28602   1.00
H1       0.40343    0.25556    0.31400   1.00
C2       0.39561    0.25118    0.25101   1.00
C5       0.52121    0.34000    0.28355   1.00
H2       0.55162    0.34689    0.29281   1.00
H2       0.50734    0.32192    0.30682   1.00
C5       0.49871    0.37815    0.27940   1.00
H2       0.46863    0.37133    0.26909   1.00
H2       0.51302    0.39610    0.25636   1.00
C5       0.49738    0.40044    0.31838   1.00
H2       0.52732    0.40710    0.32899   1.00
H2       0.48189    0.38309    0.34104   1.00
C5       0.47555    0.43935    0.31311   1.00
C5       0.48895    0.21968    0.33599   1.00
C5       0.38930    0.27709    0.16183   1.00
H2       0.50912    0.20405    0.31594   1.00
H2       0.46288    0.20091    0.34129   1.00
H2       0.41700    0.29277    0.15497   1.00
H2       0.37105    0.29700    0.18017   1.00
H2       0.30970    0.29424    0.12615   1.00
H2       0.55753    0.18379    0.36946   1.00
H2       0.51237    0.16435    0.38937   1.00
C2       0.60395    0.25205    0.25172   1.00
C3       0.58403    0.21599    0.25120   1.00
O2       0.60326    0.18198    0.26088   1.00
C3       0.58174    0.28681    0.24979   1.00
H1       0.59615    0.31485    0.24912   1.00
C3a      0.54287    0.21545    0.24981   1.00
H1       0.52798    0.18769    0.25168   1.00
C3b      0.54078    0.28619    0.24968   1.00
C4       0.52100    0.25035    0.24977   1.00
O3       0.47833    0.25645    0.32081   1.00
C5       0.61280    0.16084    0.22686   1.00
H2       0.58609    0.15310    0.20987   1.00
C5       0.63326    0.12358    0.23998   1.00
H2       0.63274    0.17797    0.20771   1.00
H2       0.61068    0.10230    0.24964   1.00
H2       0.65093    0.13091    0.26626   1.00
C5       0.65918    0.10562    0.20799   1.00
H2       0.64176    0.10137    0.18097   1.00
C5       0.67547    0.06587    0.22111   1.00
H2       0.68493    0.12459    0.20149   1.00
C5       0.50983    0.22667    0.37464   1.00
H2       0.48785    0.23604    0.39668   1.00
H2       0.53048    0.25148    0.37072   1.00
C5       0.53200    0.19020    0.38865   1.00
C5       0.54775    0.19687    0.43019   1.00
H2       0.30714    0.26659    0.06307   1.00
H2       0.31553    0.31955    0.05450   1.00
H2       0.35677    0.28449    0.05020   1.00
H2       0.46895    0.45249    0.34293   1.00
H2       0.49449    0.46040    0.29566   1.00
H2       0.44707    0.43396    0.29682   1.00
H2       0.70613    0.06186    0.20886   1.00
H2       0.67656    0.06475    0.25433   1.00
H2       0.65577    0.04155    0.20984   1.00
H2       0.54366    0.22878    0.43861   1.00
H2       0.53116    0.17754    0.45157   1.00
H2       0.58010    0.18921    0.43114   1.00
C5       1.13218    0.26659    0.37569   1.00
H2       1.14745    0.23872    0.36939   1.00
H2       1.11090    0.25991    0.39922   1.00
C5       1.16194    0.29718    0.38972   1.00
C5       1.17123    0.29159    0.43332   1.00
H2       1.15015    0.32710    0.38515   1.00
O3       0.98000    0.32076    0.25286   1.00
C4       1.02100    0.24965    0.24977   1.00
C3c      1.04243    0.24756    0.28463   1.00
H1       1.02725    0.24579    0.31222   1.00
C3d      1.04135    0.25137    0.21409   1.00
C3       1.08354    0.24827    0.28458   1.00
O2       1.10248    0.24133    0.31930   1.00
C3       1.08227    0.25284    0.21398   1.00
H1       1.09657    0.25556    0.18600   1.00
C2       1.10439    0.25118    0.24899   1.00
C5       0.97879    0.34000    0.21645   1.00
H2       0.94838    0.34689    0.20719   1.00
H2       0.99266    0.32192    0.19318   1.00
C5       1.00129    0.37815    0.22060   1.00
H2       1.03137    0.37133    0.23091   1.00
H2       0.98698    0.39610    0.24364   1.00
C5       1.00262    0.40044    0.18162   1.00
H2       0.97268    0.40710    0.17101   1.00
H2       1.01811    0.38309    0.15896   1.00
C5       1.02445    0.43935    0.18689   1.00
C5       1.01105    0.21968    0.16401   1.00
C5       1.11070    0.27709    0.33817   1.00
H2       0.99088    0.20405    0.18406   1.00
H2       1.03712    0.20091    0.15871   1.00
H2       1.08300    0.29277    0.34503   1.00
H2       1.12895    0.29700    0.31983   1.00
H2       1.19030    0.29424    0.37385   1.00
H2       0.94247    0.18379    0.13054   1.00
H2       0.98763    0.16435    0.11063   1.00
C2       0.89605    0.25205    0.24828   1.00
C3       0.91597    0.21599    0.24880   1.00
O2       0.89674    0.18198    0.23912   1.00
C3       0.91826    0.28681    0.25021   1.00
H1       0.90385    0.31485    0.25088   1.00
C3a      0.95713    0.21545    0.25019   1.00
H1       0.97202    0.18769    0.24832   1.00
C3b      0.95922    0.28619    0.25032   1.00
C4       0.97900    0.25035    0.25023   1.00
O3       1.02167    0.25645    0.17919   1.00
C5       0.88720    0.16084    0.27314   1.00
H2       0.91391    0.15310    0.29013   1.00
C5       0.86674    0.12358    0.26002   1.00
H2       0.86726    0.17797    0.29229   1.00
H2       0.88932    0.10230    0.25036   1.00
H2       0.84907    0.13091    0.23374   1.00
C5       0.84082    0.10562    0.29201   1.00
H2       0.85824    0.10137    0.31903   1.00
C5       0.82453    0.06587    0.27889   1.00
H2       0.81507    0.12459    0.29851   1.00
C5       0.99017    0.22667    0.12536   1.00
H2       1.01215    0.23604    0.10332   1.00
H2       0.96952    0.25148    0.12928   1.00
C5       0.96800    0.19020    0.11135   1.00
C5       0.95225    0.19687    0.06981   1.00
H2       1.19286    0.26659    0.43693   1.00
H2       1.18447    0.31955    0.44550   1.00
H2       1.14323    0.28449    0.44980   1.00
H2       1.03105    0.45249    0.15707   1.00
H2       1.00551    0.46040    0.20434   1.00
H2       1.05293    0.43396    0.20318   1.00
H2       0.79387    0.06186    0.29114   1.00
H2       0.82344    0.06475    0.24567   1.00
H2       0.84423    0.04155    0.29016   1.00
H2       0.95634    0.22878    0.06139   1.00
H2       0.96884    0.17754    0.04843   1.00
H2       0.91990    0.18921    0.06886   1.00
C5       0.62431    -0.13218   0.26659   1.00
H2       0.63061    -0.14745   0.23872   1.00
H2       0.60078    -0.11090   0.25991   1.00
C5       0.61028    -0.16194   0.29718   1.00
C5       0.56668    -0.17123   0.29159   1.00
H2       0.61485    -0.15015   0.32710   1.00
O3       0.74714    0.02000    0.32076   1.00
C4       0.75023    -0.02100   0.24965   1.00
C3c      0.71537    -0.04243   0.24756   1.00
H1       0.68778    -0.02725   0.24579   1.00
C3d      0.78591    -0.04135   0.25137   1.00
C3       0.71542    -0.08354   0.24827   1.00
O2       0.68070    -0.10248   0.24133   1.00
C3       0.78602    -0.08227   0.25284   1.00
H1       0.81400    -0.09657   0.25556   1.00
C2       0.75101    -0.10439   0.25118   1.00
C5       0.78355    0.02121    0.34000   1.00
H2       0.79281    0.05162    0.34689   1.00
H2       0.80682    0.00734    0.32192   1.00
C5       0.77940    -0.00129   0.37815   1.00
H2       0.76909    -0.03137   0.37133   1.00
H2       0.75636    0.01302    0.39610   1.00
C5       0.81838    -0.00262   0.40044   1.00
H2       0.82899    0.02732    0.40710   1.00
H2       0.84104    -0.01811   0.38309   1.00
C5       0.81311    -0.02445   0.43935   1.00
C5       0.83599    -0.01105   0.21968   1.00
C5       0.66183    -0.11070   0.27709   1.00
H2       0.81594    0.00912    0.20405   1.00
H2       0.84129    -0.03712   0.20091   1.00
H2       0.65497    -0.08300   0.29277   1.00
H2       0.68017    -0.12895   0.29700   1.00
H2       0.62615    -0.19030   0.29424   1.00
H2       0.86946    0.05753    0.18379   1.00
H2       0.88937    0.01237    0.16435   1.00
C2       0.75172    0.10395    0.25205   1.00
C3       0.75120    0.08403    0.21599   1.00
O2       0.76088    0.10326    0.18198   1.00
C3       0.74979    0.08174    0.28681   1.00
H1       0.74912    0.09615    0.31485   1.00
C3a      0.74981    0.04287    0.21545   1.00
H1       0.75168    0.02798    0.18769   1.00
C3b      0.74968    0.04078    0.28619   1.00
C4       0.74977    0.02100    0.25035   1.00
O3       0.82081    -0.02167   0.25645   1.00
C5       0.72686    0.11280    0.16084   1.00
H2       0.70987    0.08609    0.15310   1.00
C5       0.73998    0.13326    0.12358   1.00
H2       0.70771    0.13274    0.17797   1.00
H2       0.74964    0.11068    0.10230   1.00
H2       0.76626    0.15093    0.13091   1.00
C5       0.70799    0.15918    0.10562   1.00
H2       0.68097    0.14176    0.10137   1.00
C5       0.72111    0.17547    0.06587   1.00
H2       0.70149    0.18493    0.12459   1.00
C5       0.87464    0.00983    0.22667   1.00
H2       0.89668    -0.01215   0.23604   1.00
H2       0.87072    0.03048    0.25148   1.00
C5       0.88865    0.03200    0.19020   1.00
C5       0.93019    0.04775    0.19687   1.00
H2       0.56307    -0.19286   0.26659   1.00
H2       0.55450    -0.18447   0.31955   1.00
H2       0.55020    -0.14323   0.28449   1.00
H2       0.84293    -0.03105   0.45249   1.00
H2       0.79566    -0.00551   0.46040   1.00
H2       0.79682    -0.05293   0.43396   1.00
H2       0.70886    0.20613    0.06186   1.00
H2       0.75433    0.17656    0.06475   1.00
H2       0.70984    0.15577    0.04155   1.00
H2       0.93861    0.04366    0.22878   1.00
H2       0.95157    0.03116    0.17754   1.00
H2       0.93114    0.08010    0.18921   1.00
C5       0.76659    0.12431    -0.13218   1.00
H2       0.73872    0.13061    -0.14745   1.00
H2       0.75991    0.10078    -0.11090   1.00
C5       0.79718    0.11028    -0.16194   1.00
C5       0.79159    0.06668    -0.17123   1.00
H2       0.82710    0.11485    -0.15015   1.00
O3       0.82076    0.24714    0.02000   1.00
C4       0.74965    0.25023    -0.02100   1.00
C3c      0.74756    0.21537    -0.04243   1.00
H1       0.74579    0.18778    -0.02725   1.00
C3d      0.75137    0.28591    -0.04135   1.00
C3       0.74827    0.21542    -0.08354   1.00
O2       0.74133    0.18070    -0.10248   1.00
C3       0.75284    0.28602    -0.08227   1.00
H1       0.75556    0.31400    -0.09657   1.00
C2       0.75118    0.25101    -0.10439   1.00
C5       0.84000    0.28355    0.02121   1.00
H2       0.84689    0.29281    0.05162   1.00
H2       0.82192    0.30682    0.00734   1.00
C5       0.87815    0.27940    -0.00129   1.00
H2       0.87133    0.26909    -0.03137   1.00
H2       0.89610    0.25636    0.01302   1.00
C5       0.90044    0.31838    -0.00262   1.00
H2       0.90710    0.32899    0.02732   1.00
H2       0.88309    0.34104    -0.01811   1.00
C5       0.93935    0.31311    -0.02445   1.00
C5       0.71968    0.33599    -0.01105   1.00
C5       0.77709    0.16183    -0.11070   1.00
H2       0.70405    0.31594    0.00912   1.00
H2       0.70091    0.34129    -0.03712   1.00
H2       0.79277    0.15497    -0.08300   1.00
H2       0.79700    0.18017    -0.12895   1.00
H2       0.79424    0.12615    -0.19030   1.00
H2       0.68379    0.36946    0.05753   1.00
H2       0.66435    0.38937    0.01237   1.00
C2       0.75205    0.25172    0.10395   1.00
C3       0.71599    0.25120    0.08403   1.00
O2       0.68198    0.26088    0.10326   1.00
C3       0.78681    0.24979    0.08174   1.00
H1       0.81485    0.24912    0.09615   1.00
C3a      0.71545    0.24981    0.04287   1.00
H1       0.68769    0.25168    0.02798   1.00
C3b      0.78619    0.24968    0.04078   1.00
C4       0.75035    0.24977    0.02100   1.00
O3       0.75645    0.32081    -0.02167   1.00
C5       0.66084    0.22686    0.11280   1.00
H2       0.65310    0.20987    0.08609   1.00
C5       0.62358    0.23998    0.13326   1.00
H2       0.67797    0.20771    0.13274   1.00
H2       0.60230    0.24964    0.11068   1.00
H2       0.63091    0.26626    0.15093   1.00
C5       0.60562    0.20799    0.15918   1.00
H2       0.60137    0.18097    0.14176   1.00
C5       0.56587    0.22111    0.17547   1.00
H2       0.62459    0.20149    0.18493   1.00
C5       0.72667    0.37464    0.00983   1.00
H2       0.73604    0.39668    -0.01215   1.00
H2       0.75148    0.37072    0.03048   1.00
C5       0.69020    0.38865    0.03200   1.00
C5       0.69687    0.43019    0.04775   1.00
H2       0.76659    0.06307    -0.19286   1.00
H2       0.81955    0.05450    -0.18447   1.00
H2       0.78449    0.05020    -0.14323   1.00
H2       0.95249    0.34293    -0.03105   1.00
H2       0.96040    0.29566    -0.00551   1.00
H2       0.93396    0.29682    -0.05293   1.00
H2       0.56186    0.20886    0.20613   1.00
H2       0.56475    0.25433    0.17656   1.00
H2       0.54155    0.20984    0.15577   1.00
H2       0.72878    0.43861    0.04366   1.00
H2       0.67754    0.45157    0.03116   1.00
H2       0.68921    0.43114    0.08010   1.00
