data_cif
_audit_creation_method 'generated by iGOR'
_symmetry_space_group_name_H-M     'P 1'
_symmetry_Int_Tables_number        1
_symmetry_cell_setting             triclinic
_cell_length_a                     25.0597000
_cell_length_b                     25.0597000
_cell_length_c                     15.3097000
_cell_angle_alpha                  90.0000000
_cell_angle_beta                   90.0000000
_cell_angle_gamma                 120.0000000
loop_
_atom_site_label
_atom_site_fract_x
_atom_site_fract_y
_atom_site_fract_z
 Zn  0.885209978      0.552460015      0.187110007    
 Zn  0.129089996      0.666610003      0.312689990    
 Zn  0.447530001      0.332749993      0.187099993    
 Zn  0.333359987      0.462460011      0.312689990    
 Zn  0.667219996      0.114770003      0.187110007    
 Zn  0.537509978      0.870890021      0.312689990    
 Zn  0.114759997      0.447519988      0.187110007    
 Zn  0.870880008      0.333370000      0.312689990    
 Zn  0.552450001      0.667219996      0.187099993    
 Zn  0.666610003      0.537519991      0.312689990    
 Zn  0.332749993      0.885209978      0.187110007    
 Zn  0.462460011      0.129079998      0.312689990    
 Zn  0.114759997      0.447530001      0.812900007    
 Zn  0.870890021      0.333370000      0.687309980    
 Zn  0.552450001      0.667219996      0.812910020    
 Zn  0.666610003      0.537519991      0.687319994    
 Zn  0.332749993      0.885209978      0.812900007    
 Zn  0.462460011      0.129079998      0.687319994    
 Zn  0.885209978      0.552450001      0.812910020    
 Zn  0.129089996      0.666610003      0.687319994    
 Zn  0.447530001      0.332749993      0.812910020    
 Zn  0.333359987      0.462460011      0.687319994    
 Zn  0.667219996      0.114770003      0.812900007    
 Zn  0.537519991      0.870890021      0.687319994    
 C1  0.558929980      0.114380002      0.241950005    
 N1  0.533879995      0.150950000      0.255129993    
 N1  0.615809977      0.145219997      0.204879999    
 C2  0.577480018      0.208240002      0.224600002    
 C2  0.627380013      0.204750001      0.193990007    
 H1  0.536050022       6.59300014E-02  0.259130001    
 H2  0.670059979      0.240270004      0.165399998    
 H2  0.569989979      0.247260004      0.226769999    
 C1   5.34000015E-03  0.601170003      0.255730003    
 N1   5.02699986E-02  0.649269998      0.301270008    
 N1  0.952310026      0.603420019      0.250829995    
 C2   2.41100006E-02  0.683929980      0.326620013    
 C2  0.964439988      0.656000018      0.295899987    
 H1   1.11600002E-02  0.564979970      0.226520002    
 H2  0.929970026      0.669799984      0.302920014    
 H2   4.96300012E-02  0.725809991      0.364540011    
 C1  0.774049997      0.540239990      0.251080006    
 N1  0.743480027      0.571219981      0.267809987    
 N1  0.831219971      0.577220023      0.217409998    
 C2  0.783689976      0.631269991      0.243269995    
 C2  0.837130010      0.634920001      0.212569997    
 H1  0.754930019      0.491400003      0.263269991    
 H2  0.878700018      0.674329996      0.187759995    
 H2  0.771529973      0.666999996      0.249329999    
 C1  0.876929998      0.445250005      0.262739986    
 N1  0.849020004      0.382930011      0.255109996    
 N1  0.854749978      0.470589995      0.204870000    
 C2  0.806750000      0.368019998      0.188549995    
 C2  0.810239971      0.421409994      0.157949999    
 H1  0.912930012      0.471839994      0.309810013    
 H2  0.784309983      0.427800000      0.106349997    
 H2  0.777300000      0.320730001      0.167720005    
 C1  0.362320006      0.375490010      0.230590001    
 N1  0.350710005      0.400990009      0.301270008    
 N1  0.396569997      0.348890007      0.250820011    
 C2  0.379290015      0.389840007      0.370189995    
 C2  0.407220006      0.358099997      0.339459985    
 H1  0.346040010      0.376300007      0.165230006    
 H2  0.433780015      0.341529995      0.374289989    
 H2  0.377770007      0.405169994      0.435909986    
 C1  0.444799989      0.232140005      0.280800015    
 N1  0.428759992      0.172260001      0.267820001    
 N1  0.422769994      0.254009992      0.217409998    
 C2  0.394600004      0.155300006      0.191790000    
 C2  0.390949994      0.205090001      0.161090001    
 H1  0.472180009      0.259469986      0.335700005    
 H2  0.368059993      0.209099993      0.103430003    
 H2  0.375380009      0.109250002      0.165000007    
 C1  0.554729998      0.431679994      0.262730002    
 N1  0.617049992      0.466089994      0.255129993    
 N1  0.529399991      0.384160012      0.204879999    
 C2  0.631969988      0.438719988      0.188590005    
 C2  0.578580022      0.388819993      0.157979995    
 H1  0.528140008      0.441109985      0.309789985    
 H2  0.572200000      0.356480002      0.106399998    
 H2  0.679270029      0.456559986      0.167779997    
 C1  0.596099973       7.90000020E-04  0.279269993    
 N1  0.598990023      0.949710011      0.301270008    
 N1  0.651090026       4.76699993E-02  0.250829995    
 C2  0.659309983      0.965219975      0.285829991    
 C2  0.691039979       2.48900000E-02  0.255100012    
 H1  0.554509997       3.80999991E-03  0.283899993    
 H2  0.738990009       5.25600016E-02  0.236100003    
 H2  0.675350010      0.932900012      0.297710001    
 C1  0.765259981      0.222039998      0.262580007    
 N1  0.827700019      0.256489992      0.267830014    
 N1  0.745959997      0.168750003      0.217419997    
 C2  0.849110007      0.223010004      0.223399997    
 C2  0.799319983      0.169569999      0.192699999    
 H1  0.734239995      0.235589996      0.291269988    
 H2  0.798150003      0.132280007      0.155190006    
 H2  0.898000002      0.239460006      0.216759995    
 C1  0.446610004      0.881579995      0.206790000    
 N1  0.384160012      0.854749978      0.204879999    
 N1  0.466089994      0.849020004      0.255120009    
 C2  0.362949997      0.802190006      0.254909992    
 C2  0.412849993      0.798699975      0.285519987    
 H1  0.477490008      0.924260020      0.173429996    
 H2  0.414180011      0.764110029      0.326570004    
 H2  0.314110011      0.771109998      0.265190005    
 C1  0.987890005      0.378380001      0.232250005    
 N1  0.949699998      0.350710005      0.301270008    
 N1   4.76600006E-02  0.396560013      0.250829995    
 C2  0.987550020      0.351440012      0.367300004    
 C2   4.72100005E-02  0.379370004      0.336580008    
 H1  0.972379982      0.385210007      0.169290006    
 H2   8.91399980E-02  0.388159990      0.369560003    
 H2  0.969479978      0.332150012      0.431180000    
 C1  0.231399998      0.454780012      0.216399997    
 N1  0.168750003      0.422760010      0.217409998    
 N1  0.256489992      0.428759992      0.267809987    
 C2  0.153339997      0.373650014      0.272670001    
 C2  0.206780002      0.377310008      0.303369999    
 H1  0.258410007      0.496499985      0.178719997    
 C3  0.203769997      0.333229989      0.360179991    
 C3   9.69099998E-02  0.325919986      0.298790008    
 C4  0.147340000      0.285499990      0.386290014    
 C4   9.39000025E-02  0.281839997      0.355589986    
 H2  0.247970000      0.336250007      0.385569990    
 H2   5.27100004E-02  0.322899997      0.273400009    
 Cl  0.143610001      0.230800003      0.456779987    
 Cl   2.38700006E-02  0.222609997      0.388000011    
 C1  0.118390001      0.565010011      0.206790000    
 N1  0.145219997      0.529389977      0.204870000    
 N1  0.150950000      0.617049992      0.255109996    
 C2  0.197789997      0.560750008      0.254889995    
 C2  0.201279998      0.614139974      0.285490006    
 H1   7.56999999E-02  0.553210020      0.173449993    
 H2  0.235880002      0.650059998      0.326530010    
 H2  0.228870004      0.542990029      0.265150011    
 C1  0.621590018      0.609499991      0.232250005    
 N1  0.649259984      0.598990023      0.301270008    
 N1  0.603399992      0.651090026      0.250820011    
 C2  0.648509979      0.636089981      0.367309988    
 C2  0.620580018      0.667819977      0.336580008    
 H1  0.614780009      0.587170005      0.169279993    
 H2  0.611779988      0.700959980      0.369569987    
 H2  0.667800009      0.637319982      0.431190014    
 C1  0.548309982      0.765829980      0.272709996    
 N1  0.577210009      0.745970011      0.217409998    
 N1  0.571210027      0.827709973      0.267809987    
 C2  0.620909989      0.798340023      0.175090000    
 C2  0.617259979      0.848129988      0.205789998    
 H1  0.511080027      0.735629976      0.315990001    
 H2  0.644060016      0.896390021      0.187940001    
 H2  0.651380002      0.796540022      0.126369998    
 C1  0.444539994      0.558929980      0.241950005    
 N1  0.470580012      0.615809977      0.204870000    
 N1  0.382919997      0.533879995      0.255120009    
 C2  0.422619998      0.627380013      0.193979993    
 C2  0.369230002      0.577480018      0.224580005    
 H1  0.470109999      0.536050022      0.259130001    
 H2  0.322719991      0.569999993      0.226750001    
 H2  0.429800004      0.670059979      0.165370002    
 C1  0.400730014      0.996219993      0.291110009    
 N1  0.400990009       5.02599999E-02  0.301279992    
 N1  0.348890007      0.952300012      0.250829995    
 C2  0.346109986       3.98899987E-02  0.265320003    
 C2  0.314370006      0.980220020      0.234589994    
 H1  0.437810004      0.988940001      0.312759995    
 C3  0.257710010      0.958410025      0.195409998    
 C3  0.321170002       7.77200013E-02  0.256850004    
 C4  0.232769996      0.996240020      0.186949998    
 C4  0.264499992       5.59099987E-02  0.217669994    
 H2  0.231460005      0.909070015      0.170010000    
 H2  0.347409993      0.127059996      0.282260001    
 Cl  0.162450001      0.969179988      0.138329998    
 Cl  0.233549997      0.102860004      0.207159996    
 C1  0.218099996      0.769219995      0.207409993    
 N1  0.254009992      0.831229985      0.217419997    
 N1  0.172270000      0.743489981      0.267820001    
 C2  0.229440004      0.845510006      0.288280010    
 C2  0.179649994      0.792069972      0.318980008    
 H1  0.225219995      0.743139982      0.156800002    
 H2  0.149140000      0.785260022      0.373349994    
 H2  0.248989999      0.892430007      0.311780006    
 C1  0.420560002      0.861570001      0.725260019    
 N1  0.466089994      0.849020004      0.744889975    
 N1  0.384169996      0.854749978      0.795130014    
 C2  0.458000004      0.833369970      0.832249999    
 C2  0.408089995      0.836860001      0.862860024    
 H1  0.414000005      0.875479996      0.660929978    
 H2  0.388060004      0.827920020      0.927730024    
 H2  0.488130003      0.820919991      0.866360009    
 C1  0.987890005      0.378390014      0.767759979    
 N1  0.949710011      0.350710005      0.698740005    
 N1   4.76600006E-02  0.396569997      0.749189973    
 C2  0.987550020      0.351440012      0.632709980    
 C2   4.72199991E-02  0.379370004      0.663439989    
 H1  0.972379982      0.385219991      0.830720007    
 H2   8.91499966E-02  0.388150007      0.630460024    
 H2  0.969489992      0.332139999      0.568840027    
 C1  0.225920007      0.459740013      0.748929977    
 N1  0.256480008      0.428759992      0.732200027    
 N1  0.168750003      0.422769994      0.782599986    
 C2  0.216279998      0.368719995      0.756739974    
 C2  0.162839994      0.365069985      0.787440002    
 H1  0.245049998      0.508589983      0.736739993    
 C3  0.115079999      0.309489995      0.816190004    
 C3  0.221939996      0.316790015      0.754809976    
 C4  0.120750003      0.257569999      0.814260006    
 C4  0.174190000      0.261220008      0.783559978    
 H2   7.08900020E-02  0.306479990      0.841579974    
 H2  0.266140014      0.319810003      0.729420006    
 Cl   6.14800006E-02  0.188610002      0.849940002    
 Cl  0.181209996      0.196779996      0.781159997    
 C1  0.114380002      0.555440009      0.758059978    
 N1  0.150950000      0.617049992      0.744889975    
 N1  0.145219997      0.529399991      0.795140028    
 C2  0.208230004      0.630739987      0.775439978    
 C2  0.204740003      0.577350020      0.806050003    
 H1   6.59300014E-02  0.529869974      0.740859985    
 H2  0.240250006      0.570179999      0.834659994    
 H2  0.247260004      0.677259982      0.773289979    
 C1  0.613770008      0.603359997      0.762369990    
 N1  0.649259984      0.598990023      0.698729992    
 N1  0.603399992      0.651090026      0.749180019    
 C2  0.662060022      0.646740019      0.642030001    
 C2  0.634130001      0.678470016      0.672760010    
 H1  0.595709980      0.572189987      0.817589998    
 C3  0.640039980      0.728630006      0.627349973    
 C3  0.695900023      0.665170014      0.565900028    
 C4  0.673870027      0.747060001      0.551220000    
 C4  0.701810002      0.715330005      0.520489991    
 H2  0.616940022      0.754869998      0.652760029    
 H2  0.718990028      0.638930023      0.540489972    
 Cl  0.681209981      0.809300005      0.494870007    
 Cl  0.743789971      0.738200009      0.426030010    
 C1  0.539569974      0.768480003      0.761009991    
 N1  0.571219981      0.827709973      0.732200027    
 N1  0.577210009      0.745959997      0.782609999    
 C2  0.632420003      0.843550026      0.735809982    
 C2  0.636070013      0.793760002      0.766510010    
 H1  0.489760011      0.742079973      0.766189992    
 C3  0.692709982      0.797919989      0.776160002    
 C3  0.685410023      0.897480011      0.714770019    
 C4  0.745689988      0.851849973      0.755110025    
 C4  0.742039979      0.901639998      0.724409997    
 H2  0.695720017      0.756739974      0.801549971    
 H2  0.682389975      0.938660026      0.689369977    
 Cl  0.815970004      0.857010007      0.767090023    
 Cl  0.807789981      0.968569994      0.698300004    
 C1  0.443699986      0.573819995      0.729900002    
 N1  0.382919997      0.533890009      0.744889975    
 N1  0.470580012      0.615809977      0.795140028    
 C2  0.370680004      0.551680028      0.824209988    
 C2  0.424080014      0.601580024      0.854809999    
 H1  0.468059987      0.572340012      0.672240019    
 C3  0.423949987      0.628149986      0.933560014    
 C3  0.317189991      0.528370023      0.872359991    
 C4  0.370449990      0.604839981      0.981710017    
 C4  0.317059994      0.554939985      0.951110005    
 H2  0.468100011      0.669420004      0.958869994    
 H2  0.273030013      0.487109989      0.847050011    
 Cl  0.370290011      0.637809992       7.94299990E-02
 Cl  0.250669986      0.526019990       1.08599998E-02
 C1  0.401289999       8.10000021E-03  0.754360020    
 N1  0.400990009       5.02599999E-02  0.698729992    
 N1  0.348890007      0.952300012      0.749180019    
 C2  0.345140010       1.93000007E-02  0.655910015    
 C2  0.313410014      0.959640026      0.686640024    
 H1  0.439170003       1.78999994E-02  0.798060000    
 C3  0.255860001      0.919040024      0.653900027    
 C3  0.319319993       3.83500010E-02  0.592459977    
 C4  0.230039999      0.938080013      0.590449989    
 C4  0.261770010      0.997739971      0.559719980    
 H2  0.229619995      0.869690001      0.679310024    
 H2  0.345560014       8.76900032E-02  0.567049980    
 Cl  0.158629999      0.887690008      0.549820006    
 Cl  0.229729995       2.13699993E-02  0.480989993    
 C1  0.234150007      0.782459974      0.727289975    
 N1  0.172270000      0.743489981      0.732179999    
 N1  0.254009992      0.831229985      0.782589972    
 C2  0.151840001      0.769119978      0.794179976    
 C2  0.201629996      0.822560012      0.824880004    
 H1  0.264349997      0.775420010      0.684029996    
 H2  0.203429997      0.854839981      0.873600006    
 H2  0.103579998      0.747669995      0.812030017    
 C1  0.568289995      0.123039998      0.737269998    
 N1  0.615809977      0.145219997      0.795130014    
 N1  0.533879995      0.150950000      0.744880021    
 C2  0.611150026      0.189750001      0.842029989    
 C2  0.561249971      0.193240002      0.811429977    
 H1  0.558870018       8.70300010E-02  0.690209985    
 H2  0.543410003      0.222690001      0.832239985    
 H2  0.643480003      0.215690002      0.893620014    
 C1   8.10000021E-03  0.606800020      0.754360020    
 N1   5.02699986E-02  0.649269998      0.698750019    
 N1  0.952310026      0.603410006      0.749189973    
 C2   1.93200000E-02  0.674170017      0.655939996    
 C2  0.959649980      0.646239996      0.686670005    
 H1   1.78999994E-02  0.578710020      0.798060000    
 H2  0.922119975      0.653810024      0.668500006    
 H2   4.17799987E-02  0.709819973      0.606880009    
 C1  0.777939975      0.543219984      0.737429976    
 N1  0.831229985      0.577210009      0.782609999    
 N1  0.743489981      0.571219981      0.732200027    
 C2  0.830399990      0.629740000      0.807359993    
 C2  0.776960015      0.626089990      0.776660025    
 H1  0.764400005      0.498670012      0.708720028    
 C3  0.765150011      0.673300028      0.792900026    
 C3  0.872009993      0.680599988      0.854300022    
 C4  0.806760013      0.724150002      0.839839995    
 C4  0.860199988      0.727800012      0.870549977    
 H2  0.720950007      0.670279980      0.767509997    
 H2  0.916199982      0.683610022      0.879689991    
 Cl  0.792100012      0.782729983      0.860000014    
 Cl  0.911830008      0.790899992      0.928789973    
 C1  0.852609992      0.437330008      0.723680019    
 N1  0.854759991      0.470580012      0.795140028    
 N1  0.849030018      0.382930011      0.744889975    
 C2  0.852389991      0.435130000      0.865620017    
 C2  0.848900020      0.381740004      0.835009992    
 H1  0.853640020      0.452529997      0.657060027    
 H2  0.846350014      0.343210012      0.870859981    
 H2  0.853349984      0.450269997      0.932250023    
 C1  0.393169999      0.401289999      0.754360020    
 N1  0.350710005      0.400990009      0.698740005    
 N1  0.396569997      0.348890007      0.749180019    
 C2  0.325830013      0.345149994      0.655910015    
 C2  0.353769988      0.313410014      0.686630011    
 H1  0.421249986      0.439170003      0.798080027    
 C3  0.336829990      0.255870014      0.653890014    
 C3  0.280970007      0.319330007      0.592450023    
 C4  0.291970015      0.230049998      0.590430021    
 C4  0.264039993      0.261779994      0.559700012    
 H2  0.359930009      0.229629993      0.679300010    
 H2  0.257880002      0.345569998      0.567040026    
 Cl  0.270949990      0.158639997      0.549799979    
 Cl  0.208370000      0.229739994      0.480960011    
 C1  0.444799989      0.232140005      0.719210029    
 N1  0.422769994      0.254009992      0.782599986    
 N1  0.428759992      0.172260001      0.732190013    
 C2  0.390949994      0.205090001      0.838919997    
 C2  0.394600004      0.155300006      0.808220029    
 H1  0.472180009      0.259469986      0.664309978    
 C3  0.366299987      0.100350000      0.853280008    
 C3  0.358999997      0.199910000      0.914680004    
 C4  0.334360003       9.51600000E-02  0.929040015    
 C4  0.330709994      0.144950002      0.959739983    
 H2  0.369320005       5.91700003E-02  0.827889979    
 H2  0.355980009      0.241080001      0.940069973    
 Cl  0.299239993       2.69699991E-02  0.984960020    
 Cl  0.291070014      0.138520002       5.37500009E-02
 C1  0.554449975      0.436760008      0.746879995    
 N1  0.529399991      0.384169996      0.795140028    
 N1  0.617049992      0.466089994      0.744889975    
 C2  0.579079986      0.380030006      0.825399995    
 C2  0.632470012      0.429930001      0.794790030    
 H1  0.527440012      0.453480005      0.713630021    
 H2  0.680079997      0.442149997      0.804989994    
 H2  0.573010027      0.342079997      0.866370022    
 C1  0.609499991      0.987900019      0.767759979    
 N1  0.598990023      0.949710011      0.698740005    
 N1  0.651090026       4.76699993E-02  0.749180019    
 C2  0.636089981      0.987559974      0.632700026    
 C2  0.667829990       4.72300015E-02  0.663420022    
 H1  0.587170005      0.972379982      0.830720007    
 C3  0.708260000       9.41300020E-02  0.609489977    
 C3  0.644810021      0.974820018      0.548049986    
 C4  0.716979980       8.13800022E-02  0.524839997    
 C4  0.685249984       2.17099991E-02  0.494120002    
 H2  0.734499991      0.143470004      0.634899974    
 H2  0.618570030      0.925469995      0.522650003    
 Cl  0.767159998      0.139579996      0.457920015    
 Cl  0.696060002       5.90000022E-03  0.389079988    
 C1  0.768480003      0.228909999      0.760999978    
 N1  0.745959997      0.168750003      0.782589972    
 N1  0.827709973      0.256489992      0.732179999    
 C2  0.793749988      0.157680005      0.766470015    
 C2  0.843540013      0.211119995      0.735769987    
 H1  0.742089987      0.252319992      0.766189992    
 C3  0.897469997      0.212060004      0.714699984    
 C3  0.797909975      0.105200000      0.776099980    
 C4  0.901619971      0.159580007      0.724330008    
 C4  0.851830006      0.106140003      0.755029976    
 H2  0.938639998      0.256260008      0.689310014    
 H2  0.756730020       6.10099994E-02  0.801490009    
 Cl  0.968540013      0.160750002      0.698189974    
 Cl  0.856989980       4.10199985E-02  0.766979992    
 C1  0.457580000      0.350059986       9.99999975E-06
 N1  0.422930002      0.335170001      0.926090002    
 N1  0.422930002      0.335170001       7.39199966E-02
 C2  0.362899989      0.309379995      0.954980016    
 C2  0.362899989      0.309379995       4.50300016E-02
 H1  0.507380009      0.371450007       9.99999975E-06
 C3  0.308090001      0.285840005       9.00299996E-02
 C3  0.308090001      0.285840005      0.909979999    
 C4  0.253280014      0.262290001       4.50300016E-02
 C4  0.253280014      0.262290001      0.954980016    
 H2  0.308090001      0.285840005      0.164489999    
 H2  0.308090001      0.285840005      0.835520029    
 Cl  0.185269997      0.233080000      0.100869998    
 Cl  0.185269997      0.233080000      0.899140000    
 C1  0.649909973      0.107510000       0.00000000    
 N1  0.664810002       8.77500027E-02  0.926090002    
 N1  0.664810002       8.77500027E-02   7.39199966E-02
 C2  0.690609992       5.35200015E-02  0.954980016    
 C2  0.690609992       5.35200015E-02   4.50300016E-02
 H1  0.628499985      0.135900006       0.00000000    
 H2  0.707080007       3.16799991E-02   9.02900025E-02
 H2  0.707080007       3.16799991E-02  0.909720004    
 C1  0.878040016      0.554549992       9.99999975E-06
 N1  0.912230015      0.577049971      0.926090002    
 N1  0.912230015      0.577049971       7.39199966E-02
 C2  0.971490026      0.616039991      0.954990029    
 C2  0.971490026      0.616039991       4.50300016E-02
 H1  0.828880012      0.522199988       9.99999975E-06
 H2   9.30000003E-03  0.640919983       9.02900025E-02
 H2   9.30000003E-03  0.640919983      0.909720004    
 C1  0.542859972      0.642289996       9.99999975E-06
 N1  0.577049971      0.664799988      0.926090002    
 N1  0.577049971      0.664799988       7.39199966E-02
 C2  0.636300027      0.703790009      0.954980016    
 C2  0.636300027      0.703790009       4.50300016E-02
 H1  0.493699998      0.609939992       9.99999975E-06
 H2  0.674109995      0.728680015       9.02900025E-02
 H2  0.674109995      0.728680015      0.909720004    
 C1  0.315409988      0.877579987       0.00000000    
 N1  0.335159987      0.912230015      0.926090002    
 N1  0.335159987      0.912230015       7.39199966E-02
 C2  0.369399995      0.972259998      0.954980016    
 C2  0.369399995      0.972259998       4.50300016E-02
 H1  0.287010014      0.827769995       0.00000000    
 H2  0.391240001       1.05799995E-02   9.02900025E-02
 H2  0.391240001       1.05799995E-02  0.909720004    
 C1  0.114220001      0.455659986       9.99999975E-06
 N1   8.77399966E-02  0.422919989      0.926090002    
 N1   8.77399966E-02  0.422919989       7.39199966E-02
 C2   4.18599993E-02  0.366189986      0.954980016    
 C2   4.18599993E-02  0.366180003       4.50199991E-02
 H1  0.152290002      0.502730012       9.99999975E-06
 C3  0.999970019      0.314390004       9.00200009E-02
 C3  0.999970019      0.314390004      0.909969985    
 C4  0.958079994      0.262589991       4.50199991E-02
 C4  0.958079994      0.262589991      0.954980016    
 H2  0.999970019      0.314379990      0.164489999    
 H2  0.999970019      0.314390004      0.835510015    
 Cl  0.906099975      0.198320001      0.100860000    
 Cl  0.906099975      0.198320001      0.899129987    
 C1  0.364140004      0.487159997      0.500010014    
 N1  0.335110009      0.489179999      0.573920012    
 N1  0.335110009      0.489179999      0.426090002    
 C2  0.284790009      0.492700011      0.545029998    
 C2  0.284790009      0.492700011      0.454979986    
 H1  0.405889988      0.484239995      0.500010014    
 H2  0.252680004      0.494940013      0.409720004    
 H2  0.252680004      0.494940013      0.590290010    
 C1  0.521740019      0.879970014      0.500010014    
 N1  0.510789990      0.845920026      0.573920012    
 N1  0.510779977      0.845920026      0.426090002    
 C2  0.491800010      0.786920011      0.545029998    
 C2  0.491789997      0.786920011      0.454979986    
 H1  0.537490010      0.928910017      0.500010014    
 H2  0.479680002      0.749270022      0.409720004    
 H2  0.479680002      0.749270022      0.590290010    
 C1  0.156110004      0.695919991      0.500010014    
 N1  0.154060006      0.664849997      0.573920012    
 N1  0.154060006      0.664849997      0.426090002    
 C2  0.150500000      0.611000001      0.545029998    
 C2  0.150500000      0.611000001      0.454979986    
 H1  0.159060001      0.740599990      0.500000000    
 H2  0.148230001      0.576629996      0.409720004    
 H2  0.148230001      0.576629996      0.590290010    
 C1  0.641759992      0.521730006      0.500010014    
 N1  0.664870024      0.510800004      0.573920012    
 N1  0.664870024      0.510800004      0.426090002    
 C2  0.704919994      0.491860002      0.545029998    
 C2  0.704919994      0.491860002      0.454979986    
 H1  0.608539999      0.537440002      0.500010014    
 H2  0.730480015      0.479770005      0.409720004    
 H2  0.730480015      0.479770005      0.590290010    
 C1  0.455139995      0.130960003      0.500010014    
 N1  0.489179999      0.154060006      0.573920012    
 N1  0.489179999      0.154060006      0.426090002    
 C2  0.548179984      0.194089994      0.545029998    
 C2  0.548179984      0.194089994      0.454979986    
 H1  0.406199992       9.77400020E-02  0.500010014    
 C3  0.602029979      0.230639994      0.409979999    
 C3  0.602029979      0.230639994      0.590030015    
 C4  0.655889988      0.267179996      0.454979986    
 C4  0.655889988      0.267179996      0.545029998    
 H2  0.602029979      0.230639994      0.335519999    
 H2  0.602029979      0.230639994      0.664489985    
 Cl  0.722720027      0.312539995      0.399140000    
 Cl  0.722720027      0.312539995      0.600870013    
 C1  0.876990020      0.364160001      0.500000000    
 N1  0.845920026      0.335139990      0.573920012    
 N1  0.845920026      0.335139990      0.426090002    
 C2  0.792069972      0.284839988      0.545019984    
 C2  0.792069972      0.284839988      0.454979986    
 H1  0.921670020      0.405889988      0.500000000    
 H2  0.757700026      0.252750009      0.409720004    
 H2  0.757700026      0.252750009      0.590290010    
