data_cif
_audit_creation_method 'generated by iGOR'
_symmetry_space_group_name_H-M     'P 1'
_symmetry_Int_Tables_number        1
_symmetry_cell_setting             triclinic
_cell_length_a                     16.2770996
_cell_length_b                     16.2770996
_cell_length_c                     16.2770996
_cell_angle_alpha                  90.0000000
_cell_angle_beta                   90.0000000
_cell_angle_gamma                  90.0000000
loop_
_atom_site_label
_atom_site_fract_x
_atom_site_fract_y
_atom_site_fract_z
 Zn  0.250000000      0.500000000       0.00000000    
 Zn  0.750000000       0.00000000      0.500000000    
 Zn  0.250000000       0.00000000      0.500000000    
 Zn  0.750000000      0.500000000       0.00000000    
 Zn   0.00000000      0.250000000      0.500000000    
 Zn  0.500000000      0.750000000       0.00000000    
 Zn  0.500000000       0.00000000      0.250000000    
 Zn   0.00000000      0.500000000      0.750000000    
 Zn  0.500000000      0.250000000       0.00000000    
 Zn   0.00000000      0.750000000      0.500000000    
 Zn   0.00000000      0.500000000      0.250000000    
 Zn  0.500000000       0.00000000      0.750000000    
 C1  0.624809980      0.976830006      0.375189990    
 N1  0.604030013       0.00000000      0.297650009    
 N1  0.702350020       0.00000000      0.395969987    
 C2  0.672429979       4.01500016E-02  0.267690003    
 C2  0.732309997       4.01500016E-02  0.327569991    
 H1  0.584010005      0.943509996      0.415989995    
 H2  0.793799996       6.57799989E-02  0.326290011    
 H2  0.673709989       6.57799989E-02  0.206200004    
 C1  0.124810003      0.523169994      0.875190020    
 N1  0.104029998      0.500000000      0.797649980    
 N1  0.202350006      0.500000000      0.895969987    
 C2  0.172429994      0.459850013      0.767690003    
 C2  0.232309997      0.459850013      0.827570021    
 H1   8.40099975E-02  0.556490004      0.915989995    
 H2  0.293799996      0.434219986      0.826290011    
 H2  0.173710003      0.434219986      0.706200004    
 C1  0.375189990      0.976830006      0.375189990    
 N1  0.395969987       0.00000000      0.297650009    
 N1  0.297650009       0.00000000      0.395969987    
 C2  0.327569991       4.01500016E-02  0.267690003    
 C2  0.267690003       4.01500016E-02  0.327569991    
 H1  0.415989995      0.943509996      0.415989995    
 H2  0.206200004       6.57799989E-02  0.326290011    
 H2  0.326290011       6.57799989E-02  0.206200004    
 C1  0.875190020      0.476830006      0.875190020    
 N1  0.895969987      0.500000000      0.797649980    
 N1  0.797649980      0.500000000      0.895969987    
 C2  0.827570021      0.540149987      0.767690003    
 C2  0.767690003      0.540149987      0.827570021    
 C3  0.929780006      0.432260007      0.929780006    
 H1  0.706200004      0.565779984      0.826290011    
 H1  0.826290011      0.565779984      0.706200004    
 O1   1.90000006E-04  0.410600007      0.912400007    
 H2  0.903219998      0.418009996      0.991219997    
 C1  0.120420001      0.500000000      0.120420001    
 N1  0.104029998      0.500000000      0.202350006    
 N1  0.202350006      0.500000000      0.104029998    
 C2  0.180040002      0.500000000      0.239920005    
 C2  0.239920005      0.500000000      0.180040002    
 H1   7.33100027E-02  0.500000000       7.33100027E-02
 H2  0.306259990      0.500000000      0.186169997    
 H2  0.186169997      0.500000000      0.306259990    
 C1  0.624809980      0.976830006      0.624809980    
 N1  0.604030013       0.00000000      0.702350020    
 N1  0.702350020       0.00000000      0.604030013    
 C2  0.672429979       4.01500016E-02  0.732309997    
 C2  0.732309997       4.01500016E-02  0.672429979    
 H1  0.584010005      0.943509996      0.584010005    
 H2  0.793799996       6.57799989E-02  0.673709989    
 H2  0.673709989       6.57799989E-02  0.793799996    
 C1  0.875190020      0.523169994      0.124810003    
 N1  0.895969987      0.500000000      0.202350006    
 N1  0.797649980      0.500000000      0.104029998    
 C2  0.827570021      0.459850013      0.232309997    
 C2  0.767690003      0.459850013      0.172429994    
 H1  0.915989995      0.556490004       8.40099975E-02
 H2  0.706200004      0.434219986      0.173710003    
 H2  0.826290011      0.434219986      0.293799996    
 C1  0.375189990      0.976830006      0.624809980    
 N1  0.395969987       0.00000000      0.702350020    
 N1  0.297650009       0.00000000      0.604030013    
 C2  0.327569991       4.01500016E-02  0.732309997    
 C2  0.267690003       4.01500016E-02  0.672429979    
 H1  0.415989995      0.943509996      0.584010005    
 H2  0.206200004       6.57799989E-02  0.673709989    
 H2  0.326290011       6.57799989E-02  0.793799996    
 C1  0.375189990      0.624809980       2.31699999E-02
 N1  0.395969987      0.702350020       0.00000000    
 N1  0.297650009      0.604030013       0.00000000    
 C2  0.327569991      0.732309997      0.959850013    
 C2  0.267690003      0.672429979      0.959850013    
 C3  0.429780006      0.570219994       6.77400008E-02
 H1  0.206200004      0.673709989      0.934220016    
 H1  0.326290011      0.793799996      0.934220016    
 O1  0.500190020      0.587599993       8.94000009E-02
 H2  0.403219998      0.508780003       8.19900036E-02
 C1  0.875190020      0.124810003      0.476830006    
 N1  0.895969987      0.202350006      0.500000000    
 N1  0.797649980      0.104029998      0.500000000    
 C2  0.827570021      0.232309997      0.540149987    
 C2  0.767690003      0.172429994      0.540149987    
 C3  0.929780006       7.02200010E-02  0.432260007    
 H1  0.706200004      0.173710003      0.565779984    
 H1  0.826290011      0.293799996      0.565779984    
 O1   1.90000006E-04   8.76000002E-02  0.410600007    
 H2  0.903219998       8.77999980E-03  0.418009996    
 C1  0.988009989      0.378459990      0.621540010    
 N1   0.00000000      0.395969987      0.702350020    
 N1   0.00000000      0.297650009      0.604030013    
 C2   2.07899995E-02  0.321900010      0.737980008    
 C2   2.07899995E-02  0.262019992      0.678099990    
 C3  0.964929998      0.439350009      0.560649991    
 H1   3.40499990E-02  0.196909994      0.683000028    
 H1   3.40499990E-02  0.317000002      0.803089976    
 O1  0.953719974      0.512820005      0.574970007    
 H2  0.957560003      0.414799988      0.497189999    
 C1  0.476830006      0.875190020      0.124810003    
 N1  0.500000000      0.895969987      0.202350006    
 N1  0.500000000      0.797649980      0.104029998    
 C2  0.540149987      0.827570021      0.232309997    
 C2  0.540149987      0.767690003      0.172429994    
 C3  0.432260007      0.929780006       7.02200010E-02
 H1  0.565779984      0.706200004      0.173710003    
 H1  0.565779984      0.826290011      0.293799996    
 O1  0.410600007       1.90000006E-04   8.76000002E-02
 H2  0.418009996      0.903219998       8.77999980E-03
 C1  0.130019993      0.869979978      0.467229992    
 N1  0.104029998      0.797649980      0.500000000    
 N1  0.202350006      0.895969987      0.500000000    
 C2  0.163399994      0.776709974      0.556789994    
 C2  0.223289996      0.836600006      0.556789994    
 H1   9.67099965E-02  0.903289974      0.420120001    
 H2  0.279020011      0.841080010      0.593029976    
 H2  0.158920005      0.720979989      0.593029976    
 C1  0.624809980      0.375189990       2.31699999E-02
 N1  0.604030013      0.297650009       0.00000000    
 N1  0.702350020      0.395969987       0.00000000    
 C2  0.672429979      0.267690003      0.959850013    
 C2  0.732309997      0.327569991      0.959850013    
 H1  0.584010005      0.415989995       5.64900003E-02
 H2  0.793799996      0.326290011      0.934220016    
 H2  0.673709989      0.206200004      0.934220016    
 C1   3.27700004E-02  0.369980007      0.369980007    
 N1   0.00000000      0.395969987      0.297650009    
 N1   0.00000000      0.297650009      0.395969987    
 C2  0.943210006      0.336600006      0.276710004    
 C2  0.943210006      0.276710004      0.336600006    
 H1   7.98799992E-02  0.403290004      0.403290004    
 H2  0.906970024      0.220980003      0.341080010    
 H2  0.906970024      0.341080010      0.220980003    
 C1  0.532769978      0.869979978      0.869979978    
 N1  0.500000000      0.895969987      0.797649980    
 N1  0.500000000      0.797649980      0.895969987    
 C2  0.443210006      0.836600006      0.776709974    
 C2  0.443210006      0.776709974      0.836600006    
 C3  0.595799983      0.914550006      0.914550006    
 H1  0.406969994      0.720979989      0.841080010    
 H1  0.406969994      0.841080010      0.720979989    
 O1  0.626429975      0.980099976      0.892310023    
 H2  0.615949988      0.884790003      0.972800016    
 C1  0.375189990      0.375189990      0.976830006    
 N1  0.395969987      0.297650009       0.00000000    
 N1  0.297650009      0.395969987       0.00000000    
 C2  0.327569991      0.267690003       4.01500016E-02
 C2  0.267690003      0.327569991       4.01500016E-02
 C3  0.429780006      0.429780006      0.932259977    
 H1  0.206200004      0.326290011       6.57799989E-02
 H1  0.326290011      0.206200004       6.57799989E-02
 O1  0.500190020      0.412400007      0.910600007    
 H2  0.403219998      0.491219997      0.918009996    
 C1  0.869979978      0.869979978      0.532769978    
 N1  0.895969987      0.797649980      0.500000000    
 N1  0.797649980      0.895969987      0.500000000    
 C2  0.836600006      0.776709974      0.443210006    
 C2  0.776709974      0.836600006      0.443210006    
 C3  0.914550006      0.914550006      0.595799983    
 H1  0.720979989      0.841080010      0.406969994    
 H1  0.841080010      0.720979989      0.406969994    
 O1  0.980099976      0.892310023      0.626429975    
 H2  0.884790003      0.972800016      0.615949988    
 C1  0.523169994      0.124810003      0.124810003    
 N1  0.500000000      0.202350006      0.104029998    
 N1  0.500000000      0.104029998      0.202350006    
 C2  0.459850013      0.232309997      0.172429994    
 C2  0.459850013      0.172429994      0.232309997    
 C3  0.567740023       7.02200010E-02   7.02200010E-02
 H1  0.434219986      0.173710003      0.293799996    
 H1  0.434219986      0.293799996      0.173710003    
 O1  0.589399993       8.76000002E-02  0.999809980    
 H2  0.581990004       8.77999980E-03   9.67800021E-02
 C1   3.27700004E-02  0.630020022      0.630020022    
 N1   0.00000000      0.702350020      0.604030013    
 N1   0.00000000      0.604030013      0.702350020    
 C2  0.943210006      0.723290026      0.663399994    
 C2  0.943210006      0.663399994      0.723290026    
 H1   7.98799992E-02  0.596710026      0.596710026    
 H2  0.906970024      0.658919990      0.779020011    
 H2  0.906970024      0.779020011      0.658919990    
 C1  0.124810003      0.124810003      0.523169994    
 N1  0.104029998      0.202350006      0.500000000    
 N1  0.202350006      0.104029998      0.500000000    
 C2  0.172429994      0.232309997      0.459850013    
 C2  0.232309997      0.172429994      0.459850013    
 C3   7.02200010E-02   7.02200010E-02  0.567740023    
 H1  0.293799996      0.173710003      0.434219986    
 H1  0.173710003      0.293799996      0.434219986    
 O1  0.999809980       8.76000002E-02  0.589399993    
 H2   9.67800021E-02   8.77999980E-03  0.581990004    
 C1  0.624809980      0.624809980      0.976830006    
 N1  0.604030013      0.702350020       0.00000000    
 N1  0.702350020      0.604030013       0.00000000    
 C2  0.672429979      0.732309997       4.01500016E-02
 C2  0.732309997      0.672429979       4.01500016E-02
 C3  0.570219994      0.570219994      0.932259977    
 H1  0.793799996      0.673709989       6.57799989E-02
 H1  0.673709989      0.793799996       6.57799989E-02
 O1  0.499810010      0.587599993      0.910600007    
 H2  0.596780002      0.508780003      0.918009996    
 C1  0.476830006      0.124810003      0.875190020    
 N1  0.500000000      0.104029998      0.797649980    
 N1  0.500000000      0.202350006      0.895969987    
 C2  0.540149987      0.172429994      0.767690003    
 C2  0.540149987      0.232309997      0.827570021    
 C3  0.432260007       7.02200010E-02  0.929780006    
 H1  0.565779984      0.293799996      0.826290011    
 H1  0.565779984      0.173710003      0.706200004    
 O1  0.410600007      0.999809980      0.912400007    
 H2  0.418009996       9.67800021E-02  0.991219997    
 C1  0.988009989      0.621540010      0.378459990    
 N1   0.00000000      0.604030013      0.297650009    
 N1   0.00000000      0.702350020      0.395969987    
 C2   2.07899995E-02  0.678099990      0.262019992    
 C2   2.07899995E-02  0.737980008      0.321900010    
 H1  0.970759988      0.576030016      0.423970014    
 H2   3.40499990E-02  0.803089976      0.317000002    
 H2   3.40499990E-02  0.683000028      0.196909994    
