data_IRMOF10_SG202_interpen_Ligand4lp_label_o.

_audit_creation_method             'generated by an auxiliary program of Tobunporous'

_symmetry_space_group_name_H-M     'P 1'
_symmetry_Int_Tables_number        1
_symmetry_cell_setting             triclinic

_cell_length_a                    34.2800
_cell_length_b                    34.2800
_cell_length_c                    34.2800
_cell_angle_alpha                 90.0000
_cell_angle_beta                  90.0000
_cell_angle_gamma                 90.0000

loop_
_atom_site_label
_atom_site_fract_x
_atom_site_fract_y
_atom_site_fract_z
_atom_site_occupancy
O1       0.75000    0.75000    0.75000   1.00
Zn1      0.71720    0.78280    0.78280   1.00
Zn1      0.78280    0.71720    0.78280   1.00
Zn1      0.78280    0.78280    0.71720   1.00
Zn1      0.71720    0.71720    0.71720   1.00
O2       0.72650    0.77350    0.83820   1.00
O2       0.72650    0.83820    0.77350   1.00
O2       0.66180    0.77350    0.77350   1.00
O2       0.77350    0.72650    0.83820   1.00
O2       0.83820    0.72650    0.77350   1.00
O2       0.77350    0.66180    0.77350   1.00
O2       0.77350    0.83820    0.72650   1.00
O2       0.83820    0.77350    0.72650   1.00
O2       0.77350    0.77350    0.66180   1.00
O2       0.66180    0.72650    0.72650   1.00
O2       0.72650    0.66180    0.72650   1.00
O2       0.72650    0.72650    0.66180   1.00
C1       0.75000    0.75000    0.85520   1.00
C1       0.75000    0.85520    0.75000   1.00
C1       0.64480    0.75000    0.75000   1.00
C1       0.85520    0.75000    0.75000   1.00
C1       0.75000    0.64480    0.75000   1.00
C1       0.75000    0.75000    0.64480   1.00
O1       0.25000    0.25000    0.75000   1.00
Zn1      0.21720    0.28280    0.78280   1.00
Zn1      0.28280    0.21720    0.78280   1.00
Zn1      0.28280    0.28280    0.71720   1.00
Zn1      0.21720    0.21720    0.71720   1.00
O2       0.22650    0.27350    0.83820   1.00
O2       0.22650    0.33820    0.77350   1.00
O2       0.16180    0.27350    0.77350   1.00
O2       0.27350    0.22650    0.83820   1.00
O2       0.33820    0.22650    0.77350   1.00
O2       0.27350    0.16180    0.77350   1.00
O2       0.27350    0.33820    0.72650   1.00
O2       0.33820    0.27350    0.72650   1.00
O2       0.27350    0.27350    0.66180   1.00
O2       0.16180    0.22650    0.72650   1.00
O2       0.22650    0.16180    0.72650   1.00
O2       0.22650    0.22650    0.66180   1.00
C1       0.25000    0.25000    0.85520   1.00
C1       0.25000    0.35520    0.75000   1.00
C1       0.14480    0.25000    0.75000   1.00
C1       0.35520    0.25000    0.75000   1.00
C1       0.25000    0.14480    0.75000   1.00
C1       0.25000    0.25000    0.64480   1.00
O1       0.25000    0.75000    0.25000   1.00
Zn1      0.21720    0.78280    0.28280   1.00
Zn1      0.28280    0.71720    0.28280   1.00
Zn1      0.28280    0.78280    0.21720   1.00
Zn1      0.21720    0.71720    0.21720   1.00
O2       0.22650    0.77350    0.33820   1.00
O2       0.22650    0.83820    0.27350   1.00
O2       0.16180    0.77350    0.27350   1.00
O2       0.27350    0.72650    0.33820   1.00
O2       0.33820    0.72650    0.27350   1.00
O2       0.27350    0.66180    0.27350   1.00
O2       0.27350    0.83820    0.22650   1.00
O2       0.33820    0.77350    0.22650   1.00
O2       0.27350    0.77350    0.16180   1.00
O2       0.16180    0.72650    0.22650   1.00
O2       0.22650    0.66180    0.22650   1.00
O2       0.22650    0.72650    0.16180   1.00
C1       0.25000    0.75000    0.35520   1.00
C1       0.25000    0.85520    0.25000   1.00
C1       0.14480    0.75000    0.25000   1.00
C1       0.35520    0.75000    0.25000   1.00
C1       0.25000    0.64480    0.25000   1.00
C1       0.25000    0.75000    0.14480   1.00
O1       0.75000    0.25000    0.25000   1.00
Zn1      0.71720    0.28280    0.28280   1.00
Zn1      0.78280    0.21720    0.28280   1.00
Zn1      0.78280    0.28280    0.21720   1.00
Zn1      0.71720    0.21720    0.21720   1.00
O2       0.72650    0.27350    0.33820   1.00
O2       0.72650    0.33820    0.27350   1.00
O2       0.66180    0.27350    0.27350   1.00
O2       0.77350    0.22650    0.33820   1.00
O2       0.83820    0.22650    0.27350   1.00
O2       0.77350    0.16180    0.27350   1.00
O2       0.77350    0.33820    0.22650   1.00
O2       0.83820    0.27350    0.22650   1.00
O2       0.77350    0.27350    0.16180   1.00
O2       0.66180    0.22650    0.22650   1.00
O2       0.72650    0.16180    0.22650   1.00
O2       0.72650    0.22650    0.16180   1.00
C1       0.75000    0.25000    0.35520   1.00
C1       0.75000    0.35520    0.25000   1.00
C1       0.64480    0.25000    0.25000   1.00
C1       0.85520    0.25000    0.25000   1.00
C1       0.75000    0.14480    0.25000   1.00
C1       0.75000    0.25000    0.14480   1.00
O1       0.25000    0.25000    0.25000   1.00
Zn1      0.28280    0.21720    0.21720   1.00
Zn1      0.21720    0.28280    0.21720   1.00
Zn1      0.21720    0.21720    0.28280   1.00
Zn1      0.28280    0.28280    0.28280   1.00
O2       0.27350    0.22650    0.16180   1.00
O2       0.27350    0.16180    0.22650   1.00
O2       0.33820    0.22650    0.22650   1.00
O2       0.22650    0.27350    0.16180   1.00
O2       0.16180    0.27350    0.22650   1.00
O2       0.22650    0.33820    0.22650   1.00
O2       0.22650    0.16180    0.27350   1.00
O2       0.16180    0.22650    0.27350   1.00
O2       0.22650    0.22650    0.33820   1.00
O2       0.33820    0.27350    0.27350   1.00
O2       0.27350    0.33820    0.27350   1.00
O2       0.27350    0.27350    0.33820   1.00
C1       0.25000    0.25000    0.14480   1.00
C1       0.25000    0.14480    0.25000   1.00
C1       0.35520    0.25000    0.25000   1.00
C1       0.14480    0.25000    0.25000   1.00
C1       0.25000    0.35520    0.25000   1.00
C1       0.25000    0.25000    0.35520   1.00
O1       0.75000    0.75000    0.25000   1.00
Zn1      0.78280    0.71720    0.21720   1.00
Zn1      0.71720    0.78280    0.21720   1.00
Zn1      0.71720    0.71720    0.28280   1.00
Zn1      0.78280    0.78280    0.28280   1.00
O2       0.77350    0.72650    0.16180   1.00
O2       0.77350    0.66180    0.22650   1.00
O2       0.83820    0.72650    0.22650   1.00
O2       0.72650    0.77350    0.16180   1.00
O2       0.66180    0.77350    0.22650   1.00
O2       0.72650    0.83820    0.22650   1.00
O2       0.72650    0.66180    0.27350   1.00
O2       0.66180    0.72650    0.27350   1.00
O2       0.72650    0.72650    0.33820   1.00
O2       0.83820    0.77350    0.27350   1.00
O2       0.77350    0.83820    0.27350   1.00
O2       0.77350    0.77350    0.33820   1.00
C1       0.75000    0.75000    0.14480   1.00
C1       0.75000    0.64480    0.25000   1.00
C1       0.85520    0.75000    0.25000   1.00
C1       0.64480    0.75000    0.25000   1.00
C1       0.75000    0.85520    0.25000   1.00
C1       0.75000    0.75000    0.35520   1.00
O1       0.75000    0.25000    0.75000   1.00
Zn1      0.78280    0.21720    0.71720   1.00
Zn1      0.71720    0.28280    0.71720   1.00
Zn1      0.71720    0.21720    0.78280   1.00
Zn1      0.78280    0.28280    0.78280   1.00
O2       0.77350    0.22650    0.66180   1.00
O2       0.77350    0.16180    0.72650   1.00
O2       0.83820    0.22650    0.72650   1.00
O2       0.72650    0.27350    0.66180   1.00
O2       0.66180    0.27350    0.72650   1.00
O2       0.72650    0.33820    0.72650   1.00
O2       0.72650    0.16180    0.77350   1.00
O2       0.66180    0.22650    0.77350   1.00
O2       0.72650    0.22650    0.83820   1.00
O2       0.83820    0.27350    0.77350   1.00
O2       0.77350    0.33820    0.77350   1.00
O2       0.77350    0.27350    0.83820   1.00
C1       0.75000    0.25000    0.64480   1.00
C1       0.75000    0.14480    0.75000   1.00
C1       0.85520    0.25000    0.75000   1.00
C1       0.64480    0.25000    0.75000   1.00
C1       0.75000    0.35520    0.75000   1.00
C1       0.75000    0.25000    0.85520   1.00
O1       0.25000    0.75000    0.75000   1.00
Zn1      0.28280    0.71720    0.71720   1.00
Zn1      0.21720    0.78280    0.71720   1.00
Zn1      0.21720    0.71720    0.78280   1.00
Zn1      0.28280    0.78280    0.78280   1.00
O2       0.27350    0.72650    0.66180   1.00
O2       0.27350    0.66180    0.72650   1.00
O2       0.33820    0.72650    0.72650   1.00
O2       0.22650    0.77350    0.66180   1.00
O2       0.16180    0.77350    0.72650   1.00
O2       0.22650    0.83820    0.72650   1.00
O2       0.22650    0.66180    0.77350   1.00
O2       0.16180    0.72650    0.77350   1.00
O2       0.22650    0.72650    0.83820   1.00
O2       0.33820    0.77350    0.77350   1.00
O2       0.27350    0.83820    0.77350   1.00
O2       0.27350    0.77350    0.83820   1.00
C1       0.25000    0.75000    0.64480   1.00
C1       0.25000    0.64480    0.75000   1.00
C1       0.35520    0.75000    0.75000   1.00
C1       0.14480    0.75000    0.75000   1.00
C1       0.25000    0.85520    0.75000   1.00
C1       0.25000    0.75000    0.85520   1.00
O1       1.00000    1.00000    1.00000   1.00
Zn1      0.96720    1.03280    1.03280   1.00
Zn1      1.03280    0.96720    1.03280   1.00
Zn1      1.03280    1.03280    0.96720   1.00
Zn1      0.96720    0.96720    0.96720   1.00
O2       0.97650    1.02350    1.08820   1.00
O2       0.97650    1.08820    1.02350   1.00
O2       0.91180    1.02350    1.02350   1.00
O2       1.02350    0.97650    1.08820   1.00
O2       1.08820    0.97650    1.02350   1.00
O2       1.02350    0.91180    1.02350   1.00
O2       1.02350    1.08820    0.97650   1.00
O2       1.08820    1.02350    0.97650   1.00
O2       1.02350    1.02350    0.91180   1.00
O2       0.91180    0.97650    0.97650   1.00
O2       0.97650    0.91180    0.97650   1.00
O2       0.97650    0.97650    0.91180   1.00
C1       1.00000    1.00000    1.10520   1.00
C1       1.00000    1.10520    1.00000   1.00
C1       0.89480    1.00000    1.00000   1.00
C1       1.10520    1.00000    1.00000   1.00
C1       1.00000    0.89480    1.00000   1.00
C1       1.00000    1.00000    0.89480   1.00
O1       0.50000    0.50000    1.00000   1.00
Zn1      0.46720    0.53280    1.03280   1.00
Zn1      0.53280    0.46720    1.03280   1.00
Zn1      0.53280    0.53280    0.96720   1.00
Zn1      0.46720    0.46720    0.96720   1.00
O2       0.47650    0.52350    1.08820   1.00
O2       0.47650    0.58820    1.02350   1.00
O2       0.41180    0.52350    1.02350   1.00
O2       0.52350    0.47650    1.08820   1.00
O2       0.58820    0.47650    1.02350   1.00
O2       0.52350    0.41180    1.02350   1.00
O2       0.52350    0.58820    0.97650   1.00
O2       0.58820    0.52350    0.97650   1.00
O2       0.52350    0.52350    0.91180   1.00
O2       0.41180    0.47650    0.97650   1.00
O2       0.47650    0.41180    0.97650   1.00
O2       0.47650    0.47650    0.91180   1.00
C1       0.50000    0.50000    1.10520   1.00
C1       0.50000    0.60520    1.00000   1.00
C1       0.39480    0.50000    1.00000   1.00
C1       0.60520    0.50000    1.00000   1.00
C1       0.50000    0.39480    1.00000   1.00
C1       0.50000    0.50000    0.89480   1.00
O1       0.50000    1.00000    0.50000   1.00
Zn1      0.46720    1.03280    0.53280   1.00
Zn1      0.53280    0.96720    0.53280   1.00
Zn1      0.53280    1.03280    0.46720   1.00
Zn1      0.46720    0.96720    0.46720   1.00
O2       0.47650    1.02350    0.58820   1.00
O2       0.47650    1.08820    0.52350   1.00
O2       0.41180    1.02350    0.52350   1.00
O2       0.52350    0.97650    0.58820   1.00
O2       0.58820    0.97650    0.52350   1.00
O2       0.52350    0.91180    0.52350   1.00
O2       0.52350    1.08820    0.47650   1.00
O2       0.58820    1.02350    0.47650   1.00
O2       0.52350    1.02350    0.41180   1.00
O2       0.41180    0.97650    0.47650   1.00
O2       0.47650    0.91180    0.47650   1.00
O2       0.47650    0.97650    0.41180   1.00
C1       0.50000    1.00000    0.60520   1.00
C1       0.50000    1.10520    0.50000   1.00
C1       0.39480    1.00000    0.50000   1.00
C1       0.60520    1.00000    0.50000   1.00
C1       0.50000    0.89480    0.50000   1.00
C1       0.50000    1.00000    0.39480   1.00
O1       1.00000    0.50000    0.50000   1.00
Zn1      0.96720    0.53280    0.53280   1.00
Zn1      1.03280    0.46720    0.53280   1.00
Zn1      1.03280    0.53280    0.46720   1.00
Zn1      0.96720    0.46720    0.46720   1.00
O2       0.97650    0.52350    0.58820   1.00
O2       0.97650    0.58820    0.52350   1.00
O2       0.91180    0.52350    0.52350   1.00
O2       1.02350    0.47650    0.58820   1.00
O2       1.08820    0.47650    0.52350   1.00
O2       1.02350    0.41180    0.52350   1.00
O2       1.02350    0.58820    0.47650   1.00
O2       1.08820    0.52350    0.47650   1.00
O2       1.02350    0.52350    0.41180   1.00
O2       0.91180    0.47650    0.47650   1.00
O2       0.97650    0.41180    0.47650   1.00
O2       0.97650    0.47650    0.41180   1.00
C1       1.00000    0.50000    0.60520   1.00
C1       1.00000    0.60520    0.50000   1.00
C1       0.89480    0.50000    0.50000   1.00
C1       1.10520    0.50000    0.50000   1.00
C1       1.00000    0.39480    0.50000   1.00
C1       1.00000    0.50000    0.39480   1.00
O1       0.50000    0.50000    0.50000   1.00
Zn1      0.53280    0.46720    0.46720   1.00
Zn1      0.46720    0.53280    0.46720   1.00
Zn1      0.46720    0.46720    0.53280   1.00
Zn1      0.53280    0.53280    0.53280   1.00
O2       0.52350    0.47650    0.41180   1.00
O2       0.52350    0.41180    0.47650   1.00
O2       0.58820    0.47650    0.47650   1.00
O2       0.47650    0.52350    0.41180   1.00
O2       0.41180    0.52350    0.47650   1.00
O2       0.47650    0.58820    0.47650   1.00
O2       0.47650    0.41180    0.52350   1.00
O2       0.41180    0.47650    0.52350   1.00
O2       0.47650    0.47650    0.58820   1.00
O2       0.58820    0.52350    0.52350   1.00
O2       0.52350    0.58820    0.52350   1.00
O2       0.52350    0.52350    0.58820   1.00
C1       0.50000    0.50000    0.39480   1.00
C1       0.50000    0.39480    0.50000   1.00
C1       0.60520    0.50000    0.50000   1.00
C1       0.39480    0.50000    0.50000   1.00
C1       0.50000    0.60520    0.50000   1.00
C1       0.50000    0.50000    0.60520   1.00
O1       1.00000    1.00000    0.50000   1.00
Zn1      1.03280    0.96720    0.46720   1.00
Zn1      0.96720    1.03280    0.46720   1.00
Zn1      0.96720    0.96720    0.53280   1.00
Zn1      1.03280    1.03280    0.53280   1.00
O2       1.02350    0.97650    0.41180   1.00
O2       1.02350    0.91180    0.47650   1.00
O2       1.08820    0.97650    0.47650   1.00
O2       0.97650    1.02350    0.41180   1.00
O2       0.91180    1.02350    0.47650   1.00
O2       0.97650    1.08820    0.47650   1.00
O2       0.97650    0.91180    0.52350   1.00
O2       0.91180    0.97650    0.52350   1.00
O2       0.97650    0.97650    0.58820   1.00
O2       1.08820    1.02350    0.52350   1.00
O2       1.02350    1.08820    0.52350   1.00
O2       1.02350    1.02350    0.58820   1.00
C1       1.00000    1.00000    0.39480   1.00
C1       1.00000    0.89480    0.50000   1.00
C1       1.10520    1.00000    0.50000   1.00
C1       0.89480    1.00000    0.50000   1.00
C1       1.00000    1.10520    0.50000   1.00
C1       1.00000    1.00000    0.60520   1.00
O1       1.00000    0.50000    1.00000   1.00
Zn1      1.03280    0.46720    0.96720   1.00
Zn1      0.96720    0.53280    0.96720   1.00
Zn1      0.96720    0.46720    1.03280   1.00
Zn1      1.03280    0.53280    1.03280   1.00
O2       1.02350    0.47650    0.91180   1.00
O2       1.02350    0.41180    0.97650   1.00
O2       1.08820    0.47650    0.97650   1.00
O2       0.97650    0.52350    0.91180   1.00
O2       0.91180    0.52350    0.97650   1.00
O2       0.97650    0.58820    0.97650   1.00
O2       0.97650    0.41180    1.02350   1.00
O2       0.91180    0.47650    1.02350   1.00
O2       0.97650    0.47650    1.08820   1.00
O2       1.08820    0.52350    1.02350   1.00
O2       1.02350    0.58820    1.02350   1.00
O2       1.02350    0.52350    1.08820   1.00
C1       1.00000    0.50000    0.89480   1.00
C1       1.00000    0.39480    1.00000   1.00
C1       1.10520    0.50000    1.00000   1.00
C1       0.89480    0.50000    1.00000   1.00
C1       1.00000    0.60520    1.00000   1.00
C1       1.00000    0.50000    1.10520   1.00
O1       0.50000    1.00000    1.00000   1.00
Zn1      0.53280    0.96720    0.96720   1.00
Zn1      0.46720    1.03280    0.96720   1.00
Zn1      0.46720    0.96720    1.03280   1.00
Zn1      0.53280    1.03280    1.03280   1.00
O2       0.52350    0.97650    0.91180   1.00
O2       0.52350    0.91180    0.97650   1.00
O2       0.58820    0.97650    0.97650   1.00
O2       0.47650    1.02350    0.91180   1.00
O2       0.41180    1.02350    0.97650   1.00
O2       0.47650    1.08820    0.97650   1.00
O2       0.47650    0.91180    1.02350   1.00
O2       0.41180    0.97650    1.02350   1.00
O2       0.47650    0.97650    1.08820   1.00
O2       0.58820    1.02350    1.02350   1.00
O2       0.52350    1.08820    1.02350   1.00
O2       0.52350    1.02350    1.08820   1.00
C1       0.50000    1.00000    0.89480   1.00
C1       0.50000    0.89480    1.00000   1.00
C1       0.60520    1.00000    1.00000   1.00
C1       0.39480    1.00000    1.00000   1.00
C1       0.50000    1.10520    1.00000   1.00
C1       0.50000    1.00000    1.10520   1.00
C4       0.74770    0.75420    0.98025   1.00
C4       0.74834    0.75561    1.02191   1.00
C3       0.71527    0.73920    0.95897   1.00
C3       0.71516    0.74599    1.04504   1.00
C3       0.78050    0.76815    0.95854   1.00
C3       0.78325    0.76707    1.04170   1.00
C2       0.74555    0.75310    0.89595   1.00
C2       0.75019    0.75659    1.10622   1.00
C3       0.71408    0.73882    0.91811   1.00
C3       0.71603    0.74625    1.08591   1.00
C3       0.77803    0.76745    0.91696   1.00
C3       0.78300    0.76675    1.08336   1.00
H1       0.69146    0.72763    0.97237   1.00
H1       0.68898    0.73880    1.03306   1.00
C5       0.81464    0.78207    0.97835   1.00
C5       0.81709    0.77865    1.01998   1.00
H1       0.68978    0.72776    0.90451   1.00
H1       0.69116    0.73886    1.10091   1.00
H1       0.80066    0.77736    0.90052   1.00
H1       0.80734    0.77446    1.09848   1.00
C6       0.84738    0.80056    0.95515   1.00
C6       0.85502    0.78668    1.04119   1.00
H2       0.83493    0.82019    0.93345   1.00
H2       0.85963    0.76411    1.06310   1.00
H2       0.86444    0.82059    0.97286   1.00
H2       0.88014    0.78248    1.02228   1.00
C6       0.87549    0.76993    0.93606   1.00
C6       0.85696    0.82859    1.05942   1.00
H2       0.85835    0.74645    0.92292   1.00
H2       0.82929    0.83525    1.07383   1.00
C6       0.90495    0.78504    0.90459   1.00
C6       0.89061    0.83715    1.08911   1.00
H2       0.89210    0.75609    0.95949   1.00
H2       0.85920    0.84950    1.03546   1.00
C6       0.88368    0.79954    0.86735   1.00
C6       0.88599    0.81294    1.12708   1.00
C6       0.93104    0.81824    0.92074   1.00
C6       0.93125    0.82899    1.07107   1.00
C6       0.93193    0.75072    0.89245   1.00
C6       0.88894    0.88097    1.10054   1.00
H2       0.86451    0.77696    0.85558   1.00
H2       0.85731    0.81757    1.14020   1.00
H2       0.86598    0.82525    0.87330   1.00
H2       0.88928    0.78183    1.12154   1.00
H2       0.90449    0.80746    0.84459   1.00
H2       0.90797    0.82108    1.14863   1.00
H2       0.95329    0.82664    0.89955   1.00
H2       0.95455    0.83768    1.09098   1.00
H2       0.91378    0.84415    0.92725   1.00
H2       0.93498    0.79800    1.06494   1.00
H2       0.94573    0.80906    0.94745   1.00
H2       0.93494    0.84507    1.04385   1.00
H2       0.91495    0.72659    0.88042   1.00
H2       0.86090    0.88821    1.11383   1.00
H2       0.95292    0.75979    0.87025   1.00
H2       0.91178    0.88835    1.12149   1.00
H2       0.94838    0.73970    0.91739   1.00
H2       0.89283    0.89963    1.07502   1.00
C4       0.75420    0.98025    0.74770   1.00
C4       0.75561    1.02191    0.74834   1.00
C3       0.73920    0.95897    0.71527   1.00
C3       0.74599    1.04504    0.71516   1.00
C3       0.76815    0.95854    0.78050   1.00
C3       0.76707    1.04170    0.78325   1.00
C2       0.75310    0.89595    0.74555   1.00
C2       0.75659    1.10622    0.75019   1.00
C3       0.73882    0.91811    0.71408   1.00
C3       0.74625    1.08591    0.71603   1.00
C3       0.76745    0.91696    0.77803   1.00
C3       0.76675    1.08336    0.78300   1.00
H1       0.72763    0.97237    0.69146   1.00
H1       0.73880    1.03306    0.68898   1.00
C5       0.78207    0.97835    0.81464   1.00
C5       0.77865    1.01998    0.81709   1.00
H1       0.72776    0.90451    0.68978   1.00
H1       0.73886    1.10091    0.69116   1.00
H1       0.77736    0.90052    0.80066   1.00
H1       0.77446    1.09848    0.80734   1.00
C6       0.80056    0.95515    0.84738   1.00
C6       0.78668    1.04119    0.85502   1.00
H2       0.82019    0.93345    0.83493   1.00
H2       0.76411    1.06310    0.85963   1.00
H2       0.82059    0.97286    0.86444   1.00
H2       0.78248    1.02228    0.88014   1.00
C6       0.76993    0.93606    0.87549   1.00
C6       0.82859    1.05942    0.85696   1.00
H2       0.74645    0.92292    0.85835   1.00
H2       0.83525    1.07383    0.82929   1.00
C6       0.78504    0.90459    0.90495   1.00
C6       0.83715    1.08911    0.89061   1.00
H2       0.75609    0.95949    0.89210   1.00
H2       0.84950    1.03546    0.85920   1.00
C6       0.79954    0.86735    0.88368   1.00
C6       0.81294    1.12708    0.88599   1.00
C6       0.81824    0.92074    0.93104   1.00
C6       0.82899    1.07107    0.93125   1.00
C6       0.75072    0.89245    0.93193   1.00
C6       0.88097    1.10054    0.88894   1.00
H2       0.77696    0.85558    0.86451   1.00
H2       0.81757    1.14020    0.85731   1.00
H2       0.82525    0.87330    0.86598   1.00
H2       0.78183    1.12154    0.88928   1.00
H2       0.80746    0.84459    0.90449   1.00
H2       0.82108    1.14863    0.90797   1.00
H2       0.82664    0.89955    0.95329   1.00
H2       0.83768    1.09098    0.95455   1.00
H2       0.84415    0.92725    0.91378   1.00
H2       0.79800    1.06494    0.93498   1.00
H2       0.80906    0.94745    0.94573   1.00
H2       0.84507    1.04385    0.93494   1.00
H2       0.72659    0.88042    0.91495   1.00
H2       0.88821    1.11383    0.86090   1.00
H2       0.75979    0.87025    0.95292   1.00
H2       0.88835    1.12149    0.91178   1.00
H2       0.73970    0.91739    0.94838   1.00
H2       0.89963    1.07502    0.89283   1.00
C4       0.51975    0.74770    0.74580   1.00
C4       0.47809    0.74834    0.74439   1.00
C3       0.54103    0.71527    0.76080   1.00
C3       0.45496    0.71516    0.75401   1.00
C3       0.54146    0.78050    0.73185   1.00
C3       0.45830    0.78325    0.73293   1.00
C2       0.60405    0.74555    0.74690   1.00
C2       0.39378    0.75019    0.74341   1.00
C3       0.58189    0.71408    0.76118   1.00
C3       0.41409    0.71603    0.75375   1.00
C3       0.58304    0.77803    0.73255   1.00
C3       0.41664    0.78300    0.73325   1.00
H1       0.52763    0.69146    0.77237   1.00
H1       0.46694    0.68898    0.76120   1.00
C5       0.52165    0.81464    0.71793   1.00
C5       0.48002    0.81709    0.72135   1.00
H1       0.59549    0.68978    0.77224   1.00
H1       0.39909    0.69116    0.76114   1.00
H1       0.59948    0.80066    0.72264   1.00
H1       0.40152    0.80734    0.72554   1.00
C6       0.54485    0.84738    0.69944   1.00
C6       0.45881    0.85502    0.71332   1.00
H2       0.56655    0.83493    0.67981   1.00
H2       0.43690    0.85963    0.73589   1.00
H2       0.52714    0.86444    0.67941   1.00
H2       0.47772    0.88014    0.71752   1.00
C6       0.56394    0.87549    0.73007   1.00
C6       0.44058    0.85696    0.67141   1.00
H2       0.57708    0.85835    0.75355   1.00
H2       0.42617    0.82929    0.66475   1.00
C6       0.59541    0.90495    0.71496   1.00
C6       0.41089    0.89061    0.66285   1.00
H2       0.54051    0.89210    0.74391   1.00
H2       0.46454    0.85920    0.65050   1.00
C6       0.63265    0.88368    0.70046   1.00
C6       0.37292    0.88599    0.68706   1.00
C6       0.57926    0.93104    0.68176   1.00
C6       0.42893    0.93125    0.67101   1.00
C6       0.60755    0.93193    0.74928   1.00
C6       0.39946    0.88894    0.61903   1.00
H2       0.64442    0.86451    0.72304   1.00
H2       0.35980    0.85731    0.68243   1.00
H2       0.62670    0.86598    0.67475   1.00
H2       0.37846    0.88928    0.71817   1.00
H2       0.65541    0.90449    0.69254   1.00
H2       0.35137    0.90797    0.67892   1.00
H2       0.60045    0.95329    0.67336   1.00
H2       0.40902    0.95455    0.66232   1.00
H2       0.57275    0.91378    0.65585   1.00
H2       0.43506    0.93498    0.70200   1.00
H2       0.55255    0.94573    0.69094   1.00
H2       0.45615    0.93494    0.65493   1.00
H2       0.61958    0.91495    0.77341   1.00
H2       0.38617    0.86090    0.61179   1.00
H2       0.62975    0.95292    0.74021   1.00
H2       0.37851    0.91178    0.61165   1.00
H2       0.58261    0.94838    0.76030   1.00
H2       0.42498    0.89283    0.60037   1.00
C4       0.98025    0.74770    0.75420   1.00
C4       1.02191    0.74834    0.75561   1.00
C3       0.95897    0.71527    0.73920   1.00
C3       1.04504    0.71516    0.74599   1.00
C3       0.95854    0.78050    0.76815   1.00
C3       1.04170    0.78325    0.76707   1.00
C2       0.89595    0.74555    0.75310   1.00
C2       1.10622    0.75019    0.75659   1.00
C3       0.91811    0.71408    0.73882   1.00
C3       1.08591    0.71603    0.74625   1.00
C3       0.91696    0.77803    0.76745   1.00
C3       1.08336    0.78300    0.76675   1.00
H1       0.97237    0.69146    0.72763   1.00
H1       1.03306    0.68898    0.73880   1.00
C5       0.97835    0.81464    0.78207   1.00
C5       1.01998    0.81709    0.77865   1.00
H1       0.90451    0.68978    0.72776   1.00
H1       1.10091    0.69116    0.73886   1.00
H1       0.90052    0.80066    0.77736   1.00
H1       1.09848    0.80734    0.77446   1.00
C6       0.95515    0.84738    0.80056   1.00
C6       1.04119    0.85502    0.78668   1.00
H2       0.93345    0.83493    0.82019   1.00
H2       1.06310    0.85963    0.76411   1.00
H2       0.97286    0.86444    0.82059   1.00
H2       1.02228    0.88014    0.78248   1.00
C6       0.93606    0.87549    0.76993   1.00
C6       1.05942    0.85696    0.82859   1.00
H2       0.92292    0.85835    0.74645   1.00
H2       1.07383    0.82929    0.83525   1.00
C6       0.90459    0.90495    0.78504   1.00
C6       1.08911    0.89061    0.83715   1.00
H2       0.95949    0.89210    0.75609   1.00
H2       1.03546    0.85920    0.84950   1.00
C6       0.86735    0.88368    0.79954   1.00
C6       1.12708    0.88599    0.81294   1.00
C6       0.92074    0.93104    0.81824   1.00
C6       1.07107    0.93125    0.82899   1.00
C6       0.89245    0.93193    0.75072   1.00
C6       1.10054    0.88894    0.88097   1.00
H2       0.85558    0.86451    0.77696   1.00
H2       1.14020    0.85731    0.81757   1.00
H2       0.87330    0.86598    0.82525   1.00
H2       1.12154    0.88928    0.78183   1.00
H2       0.84459    0.90449    0.80746   1.00
H2       1.14863    0.90797    0.82108   1.00
H2       0.89955    0.95329    0.82664   1.00
H2       1.09098    0.95455    0.83768   1.00
H2       0.92725    0.91378    0.84415   1.00
H2       1.06494    0.93498    0.79800   1.00
H2       0.94745    0.94573    0.80906   1.00
H2       1.04385    0.93494    0.84507   1.00
H2       0.88042    0.91495    0.72659   1.00
H2       1.11383    0.86090    0.88821   1.00
H2       0.87025    0.95292    0.75979   1.00
H2       1.12149    0.91178    0.88835   1.00
H2       0.91739    0.94838    0.73970   1.00
H2       1.07502    0.89283    0.89963   1.00
C4       0.74580    0.51975    0.74770   1.00
C4       0.74439    0.47809    0.74834   1.00
C3       0.76080    0.54103    0.71527   1.00
C3       0.75401    0.45496    0.71516   1.00
C3       0.73185    0.54146    0.78050   1.00
C3       0.73293    0.45830    0.78325   1.00
C2       0.74690    0.60405    0.74555   1.00
C2       0.74341    0.39378    0.75019   1.00
C3       0.76118    0.58189    0.71408   1.00
C3       0.75375    0.41409    0.71603   1.00
C3       0.73255    0.58304    0.77803   1.00
C3       0.73325    0.41664    0.78300   1.00
H1       0.77237    0.52763    0.69146   1.00
H1       0.76120    0.46694    0.68898   1.00
C5       0.71793    0.52165    0.81464   1.00
C5       0.72135    0.48002    0.81709   1.00
H1       0.77224    0.59549    0.68978   1.00
H1       0.76114    0.39909    0.69116   1.00
H1       0.72264    0.59948    0.80066   1.00
H1       0.72554    0.40152    0.80734   1.00
C6       0.69944    0.54485    0.84738   1.00
C6       0.71332    0.45881    0.85502   1.00
H2       0.67981    0.56655    0.83493   1.00
H2       0.73589    0.43690    0.85963   1.00
H2       0.67941    0.52714    0.86444   1.00
H2       0.71752    0.47772    0.88014   1.00
C6       0.73007    0.56394    0.87549   1.00
C6       0.67141    0.44058    0.85696   1.00
H2       0.75355    0.57708    0.85835   1.00
H2       0.66475    0.42617    0.82929   1.00
C6       0.71496    0.59541    0.90495   1.00
C6       0.66285    0.41089    0.89061   1.00
H2       0.74391    0.54051    0.89210   1.00
H2       0.65050    0.46454    0.85920   1.00
C6       0.70046    0.63265    0.88368   1.00
C6       0.68706    0.37292    0.88599   1.00
C6       0.68176    0.57926    0.93104   1.00
C6       0.67101    0.42893    0.93125   1.00
C6       0.74928    0.60755    0.93193   1.00
C6       0.61903    0.39946    0.88894   1.00
H2       0.72304    0.64442    0.86451   1.00
H2       0.68243    0.35980    0.85731   1.00
H2       0.67475    0.62670    0.86598   1.00
H2       0.71817    0.37846    0.88928   1.00
H2       0.69254    0.65541    0.90449   1.00
H2       0.67892    0.35137    0.90797   1.00
H2       0.67336    0.60045    0.95329   1.00
H2       0.66232    0.40902    0.95455   1.00
H2       0.65585    0.57275    0.91378   1.00
H2       0.70200    0.43506    0.93498   1.00
H2       0.69094    0.55255    0.94573   1.00
H2       0.65493    0.45615    0.93494   1.00
H2       0.77341    0.61958    0.91495   1.00
H2       0.61179    0.38617    0.86090   1.00
H2       0.74021    0.62975    0.95292   1.00
H2       0.61165    0.37851    0.91178   1.00
H2       0.76030    0.58261    0.94838   1.00
H2       0.60037    0.42498    0.89283   1.00
C4       0.74770    0.74580    0.51975   1.00
C4       0.74834    0.74439    0.47809   1.00
C3       0.71527    0.76080    0.54103   1.00
C3       0.71516    0.75401    0.45496   1.00
C3       0.78050    0.73185    0.54146   1.00
C3       0.78325    0.73293    0.45830   1.00
C2       0.74555    0.74690    0.60405   1.00
C2       0.75019    0.74341    0.39378   1.00
C3       0.71408    0.76118    0.58189   1.00
C3       0.71603    0.75375    0.41409   1.00
C3       0.77803    0.73255    0.58304   1.00
C3       0.78300    0.73325    0.41664   1.00
H1       0.69146    0.77237    0.52763   1.00
H1       0.68898    0.76120    0.46694   1.00
C5       0.81464    0.71793    0.52165   1.00
C5       0.81709    0.72135    0.48002   1.00
H1       0.68978    0.77224    0.59549   1.00
H1       0.69116    0.76114    0.39909   1.00
H1       0.80066    0.72264    0.59948   1.00
H1       0.80734    0.72554    0.40152   1.00
C6       0.84738    0.69944    0.54485   1.00
C6       0.85502    0.71332    0.45881   1.00
H2       0.83493    0.67981    0.56655   1.00
H2       0.85963    0.73589    0.43690   1.00
H2       0.86444    0.67941    0.52714   1.00
H2       0.88014    0.71752    0.47772   1.00
C6       0.87549    0.73007    0.56394   1.00
C6       0.85696    0.67141    0.44058   1.00
H2       0.85835    0.75355    0.57708   1.00
H2       0.82929    0.66475    0.42617   1.00
C6       0.90495    0.71496    0.59541   1.00
C6       0.89061    0.66285    0.41089   1.00
H2       0.89210    0.74391    0.54051   1.00
H2       0.85920    0.65050    0.46454   1.00
C6       0.88368    0.70046    0.63265   1.00
C6       0.88599    0.68706    0.37292   1.00
C6       0.93104    0.68176    0.57926   1.00
C6       0.93125    0.67101    0.42893   1.00
C6       0.93193    0.74928    0.60755   1.00
C6       0.88894    0.61903    0.39946   1.00
H2       0.86451    0.72304    0.64442   1.00
H2       0.85731    0.68243    0.35980   1.00
H2       0.86598    0.67475    0.62670   1.00
H2       0.88928    0.71817    0.37846   1.00
H2       0.90449    0.69254    0.65541   1.00
H2       0.90797    0.67892    0.35137   1.00
H2       0.95329    0.67336    0.60045   1.00
H2       0.95455    0.66232    0.40902   1.00
H2       0.91378    0.65585    0.57275   1.00
H2       0.93498    0.70200    0.43506   1.00
H2       0.94573    0.69094    0.55255   1.00
H2       0.93494    0.65493    0.45615   1.00
H2       0.91495    0.77341    0.61958   1.00
H2       0.86090    0.61179    0.38617   1.00
H2       0.95292    0.74021    0.62975   1.00
H2       0.91178    0.61165    0.37851   1.00
H2       0.94838    0.76030    0.58261   1.00
H2       0.89283    0.60037    0.42498   1.00
C4       0.24770    0.25420    0.98025   1.00
C4       0.24834    0.25561    1.02191   1.00
C3       0.21527    0.23920    0.95897   1.00
C3       0.21516    0.24599    1.04504   1.00
C3       0.28050    0.26815    0.95854   1.00
C3       0.28325    0.26707    1.04170   1.00
C2       0.24555    0.25310    0.89595   1.00
C2       0.25019    0.25659    1.10622   1.00
C3       0.21408    0.23882    0.91811   1.00
C3       0.21603    0.24625    1.08591   1.00
C3       0.27803    0.26745    0.91696   1.00
C3       0.28300    0.26675    1.08336   1.00
H1       0.19146    0.22763    0.97237   1.00
H1       0.18898    0.23880    1.03306   1.00
C5       0.31464    0.28207    0.97835   1.00
C5       0.31709    0.27865    1.01998   1.00
H1       0.18978    0.22776    0.90451   1.00
H1       0.19116    0.23886    1.10091   1.00
H1       0.30066    0.27736    0.90052   1.00
H1       0.30734    0.27446    1.09848   1.00
C6       0.34738    0.30056    0.95515   1.00
C6       0.35502    0.28668    1.04119   1.00
H2       0.33493    0.32019    0.93345   1.00
H2       0.35963    0.26411    1.06310   1.00
H2       0.36444    0.32059    0.97286   1.00
H2       0.38014    0.28248    1.02228   1.00
C6       0.37549    0.26993    0.93606   1.00
C6       0.35696    0.32859    1.05942   1.00
H2       0.35835    0.24645    0.92292   1.00
H2       0.32929    0.33525    1.07383   1.00
C6       0.40495    0.28504    0.90459   1.00
C6       0.39061    0.33715    1.08911   1.00
H2       0.39210    0.25609    0.95949   1.00
H2       0.35920    0.34950    1.03546   1.00
C6       0.38368    0.29954    0.86735   1.00
C6       0.38599    0.31294    1.12708   1.00
C6       0.43104    0.31824    0.92074   1.00
C6       0.43125    0.32899    1.07107   1.00
C6       0.43193    0.25072    0.89245   1.00
C6       0.38894    0.38097    1.10054   1.00
H2       0.36451    0.27696    0.85558   1.00
H2       0.35731    0.31757    1.14020   1.00
H2       0.36598    0.32525    0.87330   1.00
H2       0.38928    0.28183    1.12154   1.00
H2       0.40449    0.30746    0.84459   1.00
H2       0.40797    0.32108    1.14863   1.00
H2       0.45329    0.32664    0.89955   1.00
H2       0.45455    0.33768    1.09098   1.00
H2       0.41378    0.34415    0.92725   1.00
H2       0.43498    0.29800    1.06494   1.00
H2       0.44573    0.30906    0.94745   1.00
H2       0.43494    0.34507    1.04385   1.00
H2       0.41495    0.22659    0.88042   1.00
H2       0.36090    0.38821    1.11383   1.00
H2       0.45292    0.25979    0.87025   1.00
H2       0.41178    0.38835    1.12149   1.00
H2       0.44838    0.23970    0.91739   1.00
H2       0.39283    0.39963    1.07502   1.00
C4       0.25420    0.48025    0.74770   1.00
C4       0.25561    0.52191    0.74834   1.00
C3       0.23920    0.45897    0.71527   1.00
C3       0.24599    0.54504    0.71516   1.00
C3       0.26815    0.45854    0.78050   1.00
C3       0.26707    0.54170    0.78325   1.00
C2       0.25310    0.39595    0.74555   1.00
C2       0.25659    0.60622    0.75019   1.00
C3       0.23882    0.41811    0.71408   1.00
C3       0.24625    0.58591    0.71603   1.00
C3       0.26745    0.41696    0.77803   1.00
C3       0.26675    0.58336    0.78300   1.00
H1       0.22763    0.47237    0.69146   1.00
H1       0.23880    0.53306    0.68898   1.00
C5       0.28207    0.47835    0.81464   1.00
C5       0.27865    0.51998    0.81709   1.00
H1       0.22776    0.40451    0.68978   1.00
H1       0.23886    0.60091    0.69116   1.00
H1       0.27736    0.40052    0.80066   1.00
H1       0.27446    0.59848    0.80734   1.00
C6       0.30056    0.45515    0.84738   1.00
C6       0.28668    0.54119    0.85502   1.00
H2       0.32019    0.43345    0.83493   1.00
H2       0.26411    0.56310    0.85963   1.00
H2       0.32059    0.47286    0.86444   1.00
H2       0.28248    0.52228    0.88014   1.00
C6       0.26993    0.43606    0.87549   1.00
C6       0.32859    0.55942    0.85696   1.00
H2       0.24645    0.42292    0.85835   1.00
H2       0.33525    0.57383    0.82929   1.00
C6       0.28504    0.40459    0.90495   1.00
C6       0.33715    0.58911    0.89061   1.00
H2       0.25609    0.45949    0.89210   1.00
H2       0.34950    0.53546    0.85920   1.00
C6       0.29954    0.36735    0.88368   1.00
C6       0.31294    0.62708    0.88599   1.00
C6       0.31824    0.42074    0.93104   1.00
C6       0.32899    0.57107    0.93125   1.00
C6       0.25072    0.39245    0.93193   1.00
C6       0.38097    0.60054    0.88894   1.00
H2       0.27696    0.35558    0.86451   1.00
H2       0.31757    0.64020    0.85731   1.00
H2       0.32525    0.37330    0.86598   1.00
H2       0.28183    0.62154    0.88928   1.00
H2       0.30746    0.34459    0.90449   1.00
H2       0.32108    0.64863    0.90797   1.00
H2       0.32664    0.39955    0.95329   1.00
H2       0.33768    0.59098    0.95455   1.00
H2       0.34415    0.42725    0.91378   1.00
H2       0.29800    0.56494    0.93498   1.00
H2       0.30906    0.44745    0.94573   1.00
H2       0.34507    0.54385    0.93494   1.00
H2       0.22659    0.38042    0.91495   1.00
H2       0.38821    0.61383    0.86090   1.00
H2       0.25979    0.37025    0.95292   1.00
H2       0.38835    0.62149    0.91178   1.00
H2       0.23970    0.41739    0.94838   1.00
H2       0.39963    0.57502    0.89283   1.00
C4       0.01975    0.24770    0.74580   1.00
C4       -0.02191   0.24834    0.74439   1.00
C3       0.04103    0.21527    0.76080   1.00
C3       -0.04504   0.21516    0.75401   1.00
C3       0.04146    0.28050    0.73185   1.00
C3       -0.04170   0.28325    0.73293   1.00
C2       0.10405    0.24555    0.74690   1.00
C2       -0.10622   0.25019    0.74341   1.00
C3       0.08189    0.21408    0.76118   1.00
C3       -0.08591   0.21603    0.75375   1.00
C3       0.08304    0.27803    0.73255   1.00
C3       -0.08336   0.28300    0.73325   1.00
H1       0.02763    0.19146    0.77237   1.00
H1       -0.03306   0.18898    0.76120   1.00
C5       0.02165    0.31464    0.71793   1.00
C5       -0.01998   0.31709    0.72135   1.00
H1       0.09549    0.18978    0.77224   1.00
H1       -0.10091   0.19116    0.76114   1.00
H1       0.09948    0.30066    0.72264   1.00
H1       -0.09848   0.30734    0.72554   1.00
C6       0.04485    0.34738    0.69944   1.00
C6       -0.04119   0.35502    0.71332   1.00
H2       0.06655    0.33493    0.67981   1.00
H2       -0.06310   0.35963    0.73589   1.00
H2       0.02714    0.36444    0.67941   1.00
H2       -0.02228   0.38014    0.71752   1.00
C6       0.06394    0.37549    0.73007   1.00
C6       -0.05942   0.35696    0.67141   1.00
H2       0.07708    0.35835    0.75355   1.00
H2       -0.07383   0.32929    0.66475   1.00
C6       0.09541    0.40495    0.71496   1.00
C6       -0.08911   0.39061    0.66285   1.00
H2       0.04051    0.39210    0.74391   1.00
H2       -0.03546   0.35920    0.65050   1.00
C6       0.13265    0.38368    0.70046   1.00
C6       -0.12708   0.38599    0.68706   1.00
C6       0.07926    0.43104    0.68176   1.00
C6       -0.07107   0.43125    0.67101   1.00
C6       0.10755    0.43193    0.74928   1.00
C6       -0.10054   0.38894    0.61903   1.00
H2       0.14442    0.36451    0.72304   1.00
H2       -0.14020   0.35731    0.68243   1.00
H2       0.12670    0.36598    0.67475   1.00
H2       -0.12154   0.38928    0.71817   1.00
H2       0.15541    0.40449    0.69254   1.00
H2       -0.14863   0.40797    0.67892   1.00
H2       0.10045    0.45329    0.67336   1.00
H2       -0.09098   0.45455    0.66232   1.00
H2       0.07275    0.41378    0.65585   1.00
H2       -0.06494   0.43498    0.70200   1.00
H2       0.05255    0.44573    0.69094   1.00
H2       -0.04385   0.43494    0.65493   1.00
H2       0.11958    0.41495    0.77341   1.00
H2       -0.11383   0.36090    0.61179   1.00
H2       0.12975    0.45292    0.74021   1.00
H2       -0.12149   0.41178    0.61165   1.00
H2       0.08261    0.44838    0.76030   1.00
H2       -0.07502   0.39283    0.60037   1.00
C4       0.48025    0.24770    0.75420   1.00
C4       0.52191    0.24834    0.75561   1.00
C3       0.45897    0.21527    0.73920   1.00
C3       0.54504    0.21516    0.74599   1.00
C3       0.45854    0.28050    0.76815   1.00
C3       0.54170    0.28325    0.76707   1.00
C2       0.39595    0.24555    0.75310   1.00
C2       0.60622    0.25019    0.75659   1.00
C3       0.41811    0.21408    0.73882   1.00
C3       0.58591    0.21603    0.74625   1.00
C3       0.41696    0.27803    0.76745   1.00
C3       0.58336    0.28300    0.76675   1.00
H1       0.47237    0.19146    0.72763   1.00
H1       0.53306    0.18898    0.73880   1.00
C5       0.47835    0.31464    0.78207   1.00
C5       0.51998    0.31709    0.77865   1.00
H1       0.40451    0.18978    0.72776   1.00
H1       0.60091    0.19116    0.73886   1.00
H1       0.40052    0.30066    0.77736   1.00
H1       0.59848    0.30734    0.77446   1.00
C6       0.45515    0.34738    0.80056   1.00
C6       0.54119    0.35502    0.78668   1.00
H2       0.43345    0.33493    0.82019   1.00
H2       0.56310    0.35963    0.76411   1.00
H2       0.47286    0.36444    0.82059   1.00
H2       0.52228    0.38014    0.78248   1.00
C6       0.43606    0.37549    0.76993   1.00
C6       0.55942    0.35696    0.82859   1.00
H2       0.42292    0.35835    0.74645   1.00
H2       0.57383    0.32929    0.83525   1.00
C6       0.40459    0.40495    0.78504   1.00
C6       0.58911    0.39061    0.83715   1.00
H2       0.45949    0.39210    0.75609   1.00
H2       0.53546    0.35920    0.84950   1.00
C6       0.36735    0.38368    0.79954   1.00
C6       0.62708    0.38599    0.81294   1.00
C6       0.42074    0.43104    0.81824   1.00
C6       0.57107    0.43125    0.82899   1.00
C6       0.39245    0.43193    0.75072   1.00
C6       0.60054    0.38894    0.88097   1.00
H2       0.35558    0.36451    0.77696   1.00
H2       0.64020    0.35731    0.81757   1.00
H2       0.37330    0.36598    0.82525   1.00
H2       0.62154    0.38928    0.78183   1.00
H2       0.34459    0.40449    0.80746   1.00
H2       0.64863    0.40797    0.82108   1.00
H2       0.39955    0.45329    0.82664   1.00
H2       0.59098    0.45455    0.83768   1.00
H2       0.42725    0.41378    0.84415   1.00
H2       0.56494    0.43498    0.79800   1.00
H2       0.44745    0.44573    0.80906   1.00
H2       0.54385    0.43494    0.84507   1.00
H2       0.38042    0.41495    0.72659   1.00
H2       0.61383    0.36090    0.88821   1.00
H2       0.37025    0.45292    0.75979   1.00
H2       0.62149    0.41178    0.88835   1.00
H2       0.41739    0.44838    0.73970   1.00
H2       0.57502    0.39283    0.89963   1.00
C4       0.24580    0.01975    0.74770   1.00
C4       0.24439    -0.02191   0.74834   1.00
C3       0.26080    0.04103    0.71527   1.00
C3       0.25401    -0.04504   0.71516   1.00
C3       0.23185    0.04146    0.78050   1.00
C3       0.23293    -0.04170   0.78325   1.00
C2       0.24690    0.10405    0.74555   1.00
C2       0.24341    -0.10622   0.75019   1.00
C3       0.26118    0.08189    0.71408   1.00
C3       0.25375    -0.08591   0.71603   1.00
C3       0.23255    0.08304    0.77803   1.00
C3       0.23325    -0.08336   0.78300   1.00
H1       0.27237    0.02763    0.69146   1.00
H1       0.26120    -0.03306   0.68898   1.00
C5       0.21793    0.02165    0.81464   1.00
C5       0.22135    -0.01998   0.81709   1.00
H1       0.27224    0.09549    0.68978   1.00
H1       0.26114    -0.10091   0.69116   1.00
H1       0.22264    0.09948    0.80066   1.00
H1       0.22554    -0.09848   0.80734   1.00
C6       0.19944    0.04485    0.84738   1.00
C6       0.21332    -0.04119   0.85502   1.00
H2       0.17981    0.06655    0.83493   1.00
H2       0.23589    -0.06310   0.85963   1.00
H2       0.17941    0.02714    0.86444   1.00
H2       0.21752    -0.02228   0.88014   1.00
C6       0.23007    0.06394    0.87549   1.00
C6       0.17141    -0.05942   0.85696   1.00
H2       0.25355    0.07708    0.85835   1.00
H2       0.16475    -0.07383   0.82929   1.00
C6       0.21496    0.09541    0.90495   1.00
C6       0.16285    -0.08911   0.89061   1.00
H2       0.24391    0.04051    0.89210   1.00
H2       0.15050    -0.03546   0.85920   1.00
C6       0.20046    0.13265    0.88368   1.00
C6       0.18706    -0.12708   0.88599   1.00
C6       0.18176    0.07926    0.93104   1.00
C6       0.17101    -0.07107   0.93125   1.00
C6       0.24928    0.10755    0.93193   1.00
C6       0.11903    -0.10054   0.88894   1.00
H2       0.22304    0.14442    0.86451   1.00
H2       0.18243    -0.14020   0.85731   1.00
H2       0.17475    0.12670    0.86598   1.00
H2       0.21817    -0.12154   0.88928   1.00
H2       0.19254    0.15541    0.90449   1.00
H2       0.17892    -0.14863   0.90797   1.00
H2       0.17336    0.10045    0.95329   1.00
H2       0.16232    -0.09098   0.95455   1.00
H2       0.15585    0.07275    0.91378   1.00
H2       0.20200    -0.06494   0.93498   1.00
H2       0.19094    0.05255    0.94573   1.00
H2       0.15493    -0.04385   0.93494   1.00
H2       0.27341    0.11958    0.91495   1.00
H2       0.11179    -0.11383   0.86090   1.00
H2       0.24021    0.12975    0.95292   1.00
H2       0.11165    -0.12149   0.91178   1.00
H2       0.26030    0.08261    0.94838   1.00
H2       0.10037    -0.07502   0.89283   1.00
C4       0.24770    0.24580    0.51975   1.00
C4       0.24834    0.24439    0.47809   1.00
C3       0.21527    0.26080    0.54103   1.00
C3       0.21516    0.25401    0.45496   1.00
C3       0.28050    0.23185    0.54146   1.00
C3       0.28325    0.23293    0.45830   1.00
C2       0.24555    0.24690    0.60405   1.00
C2       0.25019    0.24341    0.39378   1.00
C3       0.21408    0.26118    0.58189   1.00
C3       0.21603    0.25375    0.41409   1.00
C3       0.27803    0.23255    0.58304   1.00
C3       0.28300    0.23325    0.41664   1.00
H1       0.19146    0.27237    0.52763   1.00
H1       0.18898    0.26120    0.46694   1.00
C5       0.31464    0.21793    0.52165   1.00
C5       0.31709    0.22135    0.48002   1.00
H1       0.18978    0.27224    0.59549   1.00
H1       0.19116    0.26114    0.39909   1.00
H1       0.30066    0.22264    0.59948   1.00
H1       0.30734    0.22554    0.40152   1.00
C6       0.34738    0.19944    0.54485   1.00
C6       0.35502    0.21332    0.45881   1.00
H2       0.33493    0.17981    0.56655   1.00
H2       0.35963    0.23589    0.43690   1.00
H2       0.36444    0.17941    0.52714   1.00
H2       0.38014    0.21752    0.47772   1.00
C6       0.37549    0.23007    0.56394   1.00
C6       0.35696    0.17141    0.44058   1.00
H2       0.35835    0.25355    0.57708   1.00
H2       0.32929    0.16475    0.42617   1.00
C6       0.40495    0.21496    0.59541   1.00
C6       0.39061    0.16285    0.41089   1.00
H2       0.39210    0.24391    0.54051   1.00
H2       0.35920    0.15050    0.46454   1.00
C6       0.38368    0.20046    0.63265   1.00
C6       0.38599    0.18706    0.37292   1.00
C6       0.43104    0.18176    0.57926   1.00
C6       0.43125    0.17101    0.42893   1.00
C6       0.43193    0.24928    0.60755   1.00
C6       0.38894    0.11903    0.39946   1.00
H2       0.36451    0.22304    0.64442   1.00
H2       0.35731    0.18243    0.35980   1.00
H2       0.36598    0.17475    0.62670   1.00
H2       0.38928    0.21817    0.37846   1.00
H2       0.40449    0.19254    0.65541   1.00
H2       0.40797    0.17892    0.35137   1.00
H2       0.45329    0.17336    0.60045   1.00
H2       0.45455    0.16232    0.40902   1.00
H2       0.41378    0.15585    0.57275   1.00
H2       0.43498    0.20200    0.43506   1.00
H2       0.44573    0.19094    0.55255   1.00
H2       0.43494    0.15493    0.45615   1.00
H2       0.41495    0.27341    0.61958   1.00
H2       0.36090    0.11179    0.38617   1.00
H2       0.45292    0.24021    0.62975   1.00
H2       0.41178    0.11165    0.37851   1.00
H2       0.44838    0.26030    0.58261   1.00
H2       0.39283    0.10037    0.42498   1.00
C4       0.24770    0.75420    0.48025   1.00
C4       0.24834    0.75561    0.52191   1.00
C3       0.21527    0.73920    0.45897   1.00
C3       0.21516    0.74599    0.54504   1.00
C3       0.28050    0.76815    0.45854   1.00
C3       0.28325    0.76707    0.54170   1.00
C2       0.24555    0.75310    0.39595   1.00
C2       0.25019    0.75659    0.60622   1.00
C3       0.21408    0.73882    0.41811   1.00
C3       0.21603    0.74625    0.58591   1.00
C3       0.27803    0.76745    0.41696   1.00
C3       0.28300    0.76675    0.58336   1.00
H1       0.19146    0.72763    0.47237   1.00
H1       0.18898    0.73880    0.53306   1.00
C5       0.31464    0.78207    0.47835   1.00
C5       0.31709    0.77865    0.51998   1.00
H1       0.18978    0.72776    0.40451   1.00
H1       0.19116    0.73886    0.60091   1.00
H1       0.30066    0.77736    0.40052   1.00
H1       0.30734    0.77446    0.59848   1.00
C6       0.34738    0.80056    0.45515   1.00
C6       0.35502    0.78668    0.54119   1.00
H2       0.33493    0.82019    0.43345   1.00
H2       0.35963    0.76411    0.56310   1.00
H2       0.36444    0.82059    0.47286   1.00
H2       0.38014    0.78248    0.52228   1.00
C6       0.37549    0.76993    0.43606   1.00
C6       0.35696    0.82859    0.55942   1.00
H2       0.35835    0.74645    0.42292   1.00
H2       0.32929    0.83525    0.57383   1.00
C6       0.40495    0.78504    0.40459   1.00
C6       0.39061    0.83715    0.58911   1.00
H2       0.39210    0.75609    0.45949   1.00
H2       0.35920    0.84950    0.53546   1.00
C6       0.38368    0.79954    0.36735   1.00
C6       0.38599    0.81294    0.62708   1.00
C6       0.43104    0.81824    0.42074   1.00
C6       0.43125    0.82899    0.57107   1.00
C6       0.43193    0.75072    0.39245   1.00
C6       0.38894    0.88097    0.60054   1.00
H2       0.36451    0.77696    0.35558   1.00
H2       0.35731    0.81757    0.64020   1.00
H2       0.36598    0.82525    0.37330   1.00
H2       0.38928    0.78183    0.62154   1.00
H2       0.40449    0.80746    0.34459   1.00
H2       0.40797    0.82108    0.64863   1.00
H2       0.45329    0.82664    0.39955   1.00
H2       0.45455    0.83768    0.59098   1.00
H2       0.41378    0.84415    0.42725   1.00
H2       0.43498    0.79800    0.56494   1.00
H2       0.44573    0.80906    0.44745   1.00
H2       0.43494    0.84507    0.54385   1.00
H2       0.41495    0.72659    0.38042   1.00
H2       0.36090    0.88821    0.61383   1.00
H2       0.45292    0.75979    0.37025   1.00
H2       0.41178    0.88835    0.62149   1.00
H2       0.44838    0.73970    0.41739   1.00
H2       0.39283    0.89963    0.57502   1.00
C4       0.25420    0.98025    0.24770   1.00
C4       0.25561    1.02191    0.24834   1.00
C3       0.23920    0.95897    0.21527   1.00
C3       0.24599    1.04504    0.21516   1.00
C3       0.26815    0.95854    0.28050   1.00
C3       0.26707    1.04170    0.28325   1.00
C2       0.25310    0.89595    0.24555   1.00
C2       0.25659    1.10622    0.25019   1.00
C3       0.23882    0.91811    0.21408   1.00
C3       0.24625    1.08591    0.21603   1.00
C3       0.26745    0.91696    0.27803   1.00
C3       0.26675    1.08336    0.28300   1.00
H1       0.22763    0.97237    0.19146   1.00
H1       0.23880    1.03306    0.18898   1.00
C5       0.28207    0.97835    0.31464   1.00
C5       0.27865    1.01998    0.31709   1.00
H1       0.22776    0.90451    0.18978   1.00
H1       0.23886    1.10091    0.19116   1.00
H1       0.27736    0.90052    0.30066   1.00
H1       0.27446    1.09848    0.30734   1.00
C6       0.30056    0.95515    0.34738   1.00
C6       0.28668    1.04119    0.35502   1.00
H2       0.32019    0.93345    0.33493   1.00
H2       0.26411    1.06310    0.35963   1.00
H2       0.32059    0.97286    0.36444   1.00
H2       0.28248    1.02228    0.38014   1.00
C6       0.26993    0.93606    0.37549   1.00
C6       0.32859    1.05942    0.35696   1.00
H2       0.24645    0.92292    0.35835   1.00
H2       0.33525    1.07383    0.32929   1.00
C6       0.28504    0.90459    0.40495   1.00
C6       0.33715    1.08911    0.39061   1.00
H2       0.25609    0.95949    0.39210   1.00
H2       0.34950    1.03546    0.35920   1.00
C6       0.29954    0.86735    0.38368   1.00
C6       0.31294    1.12708    0.38599   1.00
C6       0.31824    0.92074    0.43104   1.00
C6       0.32899    1.07107    0.43125   1.00
C6       0.25072    0.89245    0.43193   1.00
C6       0.38097    1.10054    0.38894   1.00
H2       0.27696    0.85558    0.36451   1.00
H2       0.31757    1.14020    0.35731   1.00
H2       0.32525    0.87330    0.36598   1.00
H2       0.28183    1.12154    0.38928   1.00
H2       0.30746    0.84459    0.40449   1.00
H2       0.32108    1.14863    0.40797   1.00
H2       0.32664    0.89955    0.45329   1.00
H2       0.33768    1.09098    0.45455   1.00
H2       0.34415    0.92725    0.41378   1.00
H2       0.29800    1.06494    0.43498   1.00
H2       0.30906    0.94745    0.44573   1.00
H2       0.34507    1.04385    0.43494   1.00
H2       0.22659    0.88042    0.41495   1.00
H2       0.38821    1.11383    0.36090   1.00
H2       0.25979    0.87025    0.45292   1.00
H2       0.38835    1.12149    0.41178   1.00
H2       0.23970    0.91739    0.44838   1.00
H2       0.39963    1.07502    0.39283   1.00
C4       0.01975    0.74770    0.24580   1.00
C4       -0.02191   0.74834    0.24439   1.00
C3       0.04103    0.71527    0.26080   1.00
C3       -0.04504   0.71516    0.25401   1.00
C3       0.04146    0.78050    0.23185   1.00
C3       -0.04170   0.78325    0.23293   1.00
C2       0.10405    0.74555    0.24690   1.00
C2       -0.10622   0.75019    0.24341   1.00
C3       0.08189    0.71408    0.26118   1.00
C3       -0.08591   0.71603    0.25375   1.00
C3       0.08304    0.77803    0.23255   1.00
C3       -0.08336   0.78300    0.23325   1.00
H1       0.02763    0.69146    0.27237   1.00
H1       -0.03306   0.68898    0.26120   1.00
C5       0.02165    0.81464    0.21793   1.00
C5       -0.01998   0.81709    0.22135   1.00
H1       0.09549    0.68978    0.27224   1.00
H1       -0.10091   0.69116    0.26114   1.00
H1       0.09948    0.80066    0.22264   1.00
H1       -0.09848   0.80734    0.22554   1.00
C6       0.04485    0.84738    0.19944   1.00
C6       -0.04119   0.85502    0.21332   1.00
H2       0.06655    0.83493    0.17981   1.00
H2       -0.06310   0.85963    0.23589   1.00
H2       0.02714    0.86444    0.17941   1.00
H2       -0.02228   0.88014    0.21752   1.00
C6       0.06394    0.87549    0.23007   1.00
C6       -0.05942   0.85696    0.17141   1.00
H2       0.07708    0.85835    0.25355   1.00
H2       -0.07383   0.82929    0.16475   1.00
C6       0.09541    0.90495    0.21496   1.00
C6       -0.08911   0.89061    0.16285   1.00
H2       0.04051    0.89210    0.24391   1.00
H2       -0.03546   0.85920    0.15050   1.00
C6       0.13265    0.88368    0.20046   1.00
C6       -0.12708   0.88599    0.18706   1.00
C6       0.07926    0.93104    0.18176   1.00
C6       -0.07107   0.93125    0.17101   1.00
C6       0.10755    0.93193    0.24928   1.00
C6       -0.10054   0.88894    0.11903   1.00
H2       0.14442    0.86451    0.22304   1.00
H2       -0.14020   0.85731    0.18243   1.00
H2       0.12670    0.86598    0.17475   1.00
H2       -0.12154   0.88928    0.21817   1.00
H2       0.15541    0.90449    0.19254   1.00
H2       -0.14863   0.90797    0.17892   1.00
H2       0.10045    0.95329    0.17336   1.00
H2       -0.09098   0.95455    0.16232   1.00
H2       0.07275    0.91378    0.15585   1.00
H2       -0.06494   0.93498    0.20200   1.00
H2       0.05255    0.94573    0.19094   1.00
H2       -0.04385   0.93494    0.15493   1.00
H2       0.11958    0.91495    0.27341   1.00
H2       -0.11383   0.86090    0.11179   1.00
H2       0.12975    0.95292    0.24021   1.00
H2       -0.12149   0.91178    0.11165   1.00
H2       0.08261    0.94838    0.26030   1.00
H2       -0.07502   0.89283    0.10037   1.00
C4       0.48025    0.74770    0.25420   1.00
C4       0.52191    0.74834    0.25561   1.00
C3       0.45897    0.71527    0.23920   1.00
C3       0.54504    0.71516    0.24599   1.00
C3       0.45854    0.78050    0.26815   1.00
C3       0.54170    0.78325    0.26707   1.00
C2       0.39595    0.74555    0.25310   1.00
C2       0.60622    0.75019    0.25659   1.00
C3       0.41811    0.71408    0.23882   1.00
C3       0.58591    0.71603    0.24625   1.00
C3       0.41696    0.77803    0.26745   1.00
C3       0.58336    0.78300    0.26675   1.00
H1       0.47237    0.69146    0.22763   1.00
H1       0.53306    0.68898    0.23880   1.00
C5       0.47835    0.81464    0.28207   1.00
C5       0.51998    0.81709    0.27865   1.00
H1       0.40451    0.68978    0.22776   1.00
H1       0.60091    0.69116    0.23886   1.00
H1       0.40052    0.80066    0.27736   1.00
H1       0.59848    0.80734    0.27446   1.00
C6       0.45515    0.84738    0.30056   1.00
C6       0.54119    0.85502    0.28668   1.00
H2       0.43345    0.83493    0.32019   1.00
H2       0.56310    0.85963    0.26411   1.00
H2       0.47286    0.86444    0.32059   1.00
H2       0.52228    0.88014    0.28248   1.00
C6       0.43606    0.87549    0.26993   1.00
C6       0.55942    0.85696    0.32859   1.00
H2       0.42292    0.85835    0.24645   1.00
H2       0.57383    0.82929    0.33525   1.00
C6       0.40459    0.90495    0.28504   1.00
C6       0.58911    0.89061    0.33715   1.00
H2       0.45949    0.89210    0.25609   1.00
H2       0.53546    0.85920    0.34950   1.00
C6       0.36735    0.88368    0.29954   1.00
C6       0.62708    0.88599    0.31294   1.00
C6       0.42074    0.93104    0.31824   1.00
C6       0.57107    0.93125    0.32899   1.00
C6       0.39245    0.93193    0.25072   1.00
C6       0.60054    0.88894    0.38097   1.00
H2       0.35558    0.86451    0.27696   1.00
H2       0.64020    0.85731    0.31757   1.00
H2       0.37330    0.86598    0.32525   1.00
H2       0.62154    0.88928    0.28183   1.00
H2       0.34459    0.90449    0.30746   1.00
H2       0.64863    0.90797    0.32108   1.00
H2       0.39955    0.95329    0.32664   1.00
H2       0.59098    0.95455    0.33768   1.00
H2       0.42725    0.91378    0.34415   1.00
H2       0.56494    0.93498    0.29800   1.00
H2       0.44745    0.94573    0.30906   1.00
H2       0.54385    0.93494    0.34507   1.00
H2       0.38042    0.91495    0.22659   1.00
H2       0.61383    0.86090    0.38821   1.00
H2       0.37025    0.95292    0.25979   1.00
H2       0.62149    0.91178    0.38835   1.00
H2       0.41739    0.94838    0.23970   1.00
H2       0.57502    0.89283    0.39963   1.00
C4       0.24580    0.51975    0.24770   1.00
C4       0.24439    0.47809    0.24834   1.00
C3       0.26080    0.54103    0.21527   1.00
C3       0.25401    0.45496    0.21516   1.00
C3       0.23185    0.54146    0.28050   1.00
C3       0.23293    0.45830    0.28325   1.00
C2       0.24690    0.60405    0.24555   1.00
C2       0.24341    0.39378    0.25019   1.00
C3       0.26118    0.58189    0.21408   1.00
C3       0.25375    0.41409    0.21603   1.00
C3       0.23255    0.58304    0.27803   1.00
C3       0.23325    0.41664    0.28300   1.00
H1       0.27237    0.52763    0.19146   1.00
H1       0.26120    0.46694    0.18898   1.00
C5       0.21793    0.52165    0.31464   1.00
C5       0.22135    0.48002    0.31709   1.00
H1       0.27224    0.59549    0.18978   1.00
H1       0.26114    0.39909    0.19116   1.00
H1       0.22264    0.59948    0.30066   1.00
H1       0.22554    0.40152    0.30734   1.00
C6       0.19944    0.54485    0.34738   1.00
C6       0.21332    0.45881    0.35502   1.00
H2       0.17981    0.56655    0.33493   1.00
H2       0.23589    0.43690    0.35963   1.00
H2       0.17941    0.52714    0.36444   1.00
H2       0.21752    0.47772    0.38014   1.00
C6       0.23007    0.56394    0.37549   1.00
C6       0.17141    0.44058    0.35696   1.00
H2       0.25355    0.57708    0.35835   1.00
H2       0.16475    0.42617    0.32929   1.00
C6       0.21496    0.59541    0.40495   1.00
C6       0.16285    0.41089    0.39061   1.00
H2       0.24391    0.54051    0.39210   1.00
H2       0.15050    0.46454    0.35920   1.00
C6       0.20046    0.63265    0.38368   1.00
C6       0.18706    0.37292    0.38599   1.00
C6       0.18176    0.57926    0.43104   1.00
C6       0.17101    0.42893    0.43125   1.00
C6       0.24928    0.60755    0.43193   1.00
C6       0.11903    0.39946    0.38894   1.00
H2       0.22304    0.64442    0.36451   1.00
H2       0.18243    0.35980    0.35731   1.00
H2       0.17475    0.62670    0.36598   1.00
H2       0.21817    0.37846    0.38928   1.00
H2       0.19254    0.65541    0.40449   1.00
H2       0.17892    0.35137    0.40797   1.00
H2       0.17336    0.60045    0.45329   1.00
H2       0.16232    0.40902    0.45455   1.00
H2       0.15585    0.57275    0.41378   1.00
H2       0.20200    0.43506    0.43498   1.00
H2       0.19094    0.55255    0.44573   1.00
H2       0.15493    0.45615    0.43494   1.00
H2       0.27341    0.61958    0.41495   1.00
H2       0.11179    0.38617    0.36090   1.00
H2       0.24021    0.62975    0.45292   1.00
H2       0.11165    0.37851    0.41178   1.00
H2       0.26030    0.58261    0.44838   1.00
H2       0.10037    0.42498    0.39283   1.00
C4       0.24770    0.74580    0.01975   1.00
C4       0.24834    0.74439    -0.02191   1.00
C3       0.21527    0.76080    0.04103   1.00
C3       0.21516    0.75401    -0.04504   1.00
C3       0.28050    0.73185    0.04146   1.00
C3       0.28325    0.73293    -0.04170   1.00
C2       0.24555    0.74690    0.10405   1.00
C2       0.25019    0.74341    -0.10622   1.00
C3       0.21408    0.76118    0.08189   1.00
C3       0.21603    0.75375    -0.08591   1.00
C3       0.27803    0.73255    0.08304   1.00
C3       0.28300    0.73325    -0.08336   1.00
H1       0.19146    0.77237    0.02763   1.00
H1       0.18898    0.76120    -0.03306   1.00
C5       0.31464    0.71793    0.02165   1.00
C5       0.31709    0.72135    -0.01998   1.00
H1       0.18978    0.77224    0.09549   1.00
H1       0.19116    0.76114    -0.10091   1.00
H1       0.30066    0.72264    0.09948   1.00
H1       0.30734    0.72554    -0.09848   1.00
C6       0.34738    0.69944    0.04485   1.00
C6       0.35502    0.71332    -0.04119   1.00
H2       0.33493    0.67981    0.06655   1.00
H2       0.35963    0.73589    -0.06310   1.00
H2       0.36444    0.67941    0.02714   1.00
H2       0.38014    0.71752    -0.02228   1.00
C6       0.37549    0.73007    0.06394   1.00
C6       0.35696    0.67141    -0.05942   1.00
H2       0.35835    0.75355    0.07708   1.00
H2       0.32929    0.66475    -0.07383   1.00
C6       0.40495    0.71496    0.09541   1.00
C6       0.39061    0.66285    -0.08911   1.00
H2       0.39210    0.74391    0.04051   1.00
H2       0.35920    0.65050    -0.03546   1.00
C6       0.38368    0.70046    0.13265   1.00
C6       0.38599    0.68706    -0.12708   1.00
C6       0.43104    0.68176    0.07926   1.00
C6       0.43125    0.67101    -0.07107   1.00
C6       0.43193    0.74928    0.10755   1.00
C6       0.38894    0.61903    -0.10054   1.00
H2       0.36451    0.72304    0.14442   1.00
H2       0.35731    0.68243    -0.14020   1.00
H2       0.36598    0.67475    0.12670   1.00
H2       0.38928    0.71817    -0.12154   1.00
H2       0.40449    0.69254    0.15541   1.00
H2       0.40797    0.67892    -0.14863   1.00
H2       0.45329    0.67336    0.10045   1.00
H2       0.45455    0.66232    -0.09098   1.00
H2       0.41378    0.65585    0.07275   1.00
H2       0.43498    0.70200    -0.06494   1.00
H2       0.44573    0.69094    0.05255   1.00
H2       0.43494    0.65493    -0.04385   1.00
H2       0.41495    0.77341    0.11958   1.00
H2       0.36090    0.61179    -0.11383   1.00
H2       0.45292    0.74021    0.12975   1.00
H2       0.41178    0.61165    -0.12149   1.00
H2       0.44838    0.76030    0.08261   1.00
H2       0.39283    0.60037    -0.07502   1.00
C4       0.74770    0.25420    0.48025   1.00
C4       0.74834    0.25561    0.52191   1.00
C3       0.71527    0.23920    0.45897   1.00
C3       0.71516    0.24599    0.54504   1.00
C3       0.78050    0.26815    0.45854   1.00
C3       0.78325    0.26707    0.54170   1.00
C2       0.74555    0.25310    0.39595   1.00
C2       0.75019    0.25659    0.60622   1.00
C3       0.71408    0.23882    0.41811   1.00
C3       0.71603    0.24625    0.58591   1.00
C3       0.77803    0.26745    0.41696   1.00
C3       0.78300    0.26675    0.58336   1.00
H1       0.69146    0.22763    0.47237   1.00
H1       0.68898    0.23880    0.53306   1.00
C5       0.81464    0.28207    0.47835   1.00
C5       0.81709    0.27865    0.51998   1.00
H1       0.68978    0.22776    0.40451   1.00
H1       0.69116    0.23886    0.60091   1.00
H1       0.80066    0.27736    0.40052   1.00
H1       0.80734    0.27446    0.59848   1.00
C6       0.84738    0.30056    0.45515   1.00
C6       0.85502    0.28668    0.54119   1.00
H2       0.83493    0.32019    0.43345   1.00
H2       0.85963    0.26411    0.56310   1.00
H2       0.86444    0.32059    0.47286   1.00
H2       0.88014    0.28248    0.52228   1.00
C6       0.87549    0.26993    0.43606   1.00
C6       0.85696    0.32859    0.55942   1.00
H2       0.85835    0.24645    0.42292   1.00
H2       0.82929    0.33525    0.57383   1.00
C6       0.90495    0.28504    0.40459   1.00
C6       0.89061    0.33715    0.58911   1.00
H2       0.89210    0.25609    0.45949   1.00
H2       0.85920    0.34950    0.53546   1.00
C6       0.88368    0.29954    0.36735   1.00
C6       0.88599    0.31294    0.62708   1.00
C6       0.93104    0.31824    0.42074   1.00
C6       0.93125    0.32899    0.57107   1.00
C6       0.93193    0.25072    0.39245   1.00
C6       0.88894    0.38097    0.60054   1.00
H2       0.86451    0.27696    0.35558   1.00
H2       0.85731    0.31757    0.64020   1.00
H2       0.86598    0.32525    0.37330   1.00
H2       0.88928    0.28183    0.62154   1.00
H2       0.90449    0.30746    0.34459   1.00
H2       0.90797    0.32108    0.64863   1.00
H2       0.95329    0.32664    0.39955   1.00
H2       0.95455    0.33768    0.59098   1.00
H2       0.91378    0.34415    0.42725   1.00
H2       0.93498    0.29800    0.56494   1.00
H2       0.94573    0.30906    0.44745   1.00
H2       0.93494    0.34507    0.54385   1.00
H2       0.91495    0.22659    0.38042   1.00
H2       0.86090    0.38821    0.61383   1.00
H2       0.95292    0.25979    0.37025   1.00
H2       0.91178    0.38835    0.62149   1.00
H2       0.94838    0.23970    0.41739   1.00
H2       0.89283    0.39963    0.57502   1.00
C4       0.75420    0.48025    0.24770   1.00
C4       0.75561    0.52191    0.24834   1.00
C3       0.73920    0.45897    0.21527   1.00
C3       0.74599    0.54504    0.21516   1.00
C3       0.76815    0.45854    0.28050   1.00
C3       0.76707    0.54170    0.28325   1.00
C2       0.75310    0.39595    0.24555   1.00
C2       0.75659    0.60622    0.25019   1.00
C3       0.73882    0.41811    0.21408   1.00
C3       0.74625    0.58591    0.21603   1.00
C3       0.76745    0.41696    0.27803   1.00
C3       0.76675    0.58336    0.28300   1.00
H1       0.72763    0.47237    0.19146   1.00
H1       0.73880    0.53306    0.18898   1.00
C5       0.78207    0.47835    0.31464   1.00
C5       0.77865    0.51998    0.31709   1.00
H1       0.72776    0.40451    0.18978   1.00
H1       0.73886    0.60091    0.19116   1.00
H1       0.77736    0.40052    0.30066   1.00
H1       0.77446    0.59848    0.30734   1.00
C6       0.80056    0.45515    0.34738   1.00
C6       0.78668    0.54119    0.35502   1.00
H2       0.82019    0.43345    0.33493   1.00
H2       0.76411    0.56310    0.35963   1.00
H2       0.82059    0.47286    0.36444   1.00
H2       0.78248    0.52228    0.38014   1.00
C6       0.76993    0.43606    0.37549   1.00
C6       0.82859    0.55942    0.35696   1.00
H2       0.74645    0.42292    0.35835   1.00
H2       0.83525    0.57383    0.32929   1.00
C6       0.78504    0.40459    0.40495   1.00
C6       0.83715    0.58911    0.39061   1.00
H2       0.75609    0.45949    0.39210   1.00
H2       0.84950    0.53546    0.35920   1.00
C6       0.79954    0.36735    0.38368   1.00
C6       0.81294    0.62708    0.38599   1.00
C6       0.81824    0.42074    0.43104   1.00
C6       0.82899    0.57107    0.43125   1.00
C6       0.75072    0.39245    0.43193   1.00
C6       0.88097    0.60054    0.38894   1.00
H2       0.77696    0.35558    0.36451   1.00
H2       0.81757    0.64020    0.35731   1.00
H2       0.82525    0.37330    0.36598   1.00
H2       0.78183    0.62154    0.38928   1.00
H2       0.80746    0.34459    0.40449   1.00
H2       0.82108    0.64863    0.40797   1.00
H2       0.82664    0.39955    0.45329   1.00
H2       0.83768    0.59098    0.45455   1.00
H2       0.84415    0.42725    0.41378   1.00
H2       0.79800    0.56494    0.43498   1.00
H2       0.80906    0.44745    0.44573   1.00
H2       0.84507    0.54385    0.43494   1.00
H2       0.72659    0.38042    0.41495   1.00
H2       0.88821    0.61383    0.36090   1.00
H2       0.75979    0.37025    0.45292   1.00
H2       0.88835    0.62149    0.41178   1.00
H2       0.73970    0.41739    0.44838   1.00
H2       0.89963    0.57502    0.39283   1.00
C4       0.51975    0.24770    0.24580   1.00
C4       0.47809    0.24834    0.24439   1.00
C3       0.54103    0.21527    0.26080   1.00
C3       0.45496    0.21516    0.25401   1.00
C3       0.54146    0.28050    0.23185   1.00
C3       0.45830    0.28325    0.23293   1.00
C2       0.60405    0.24555    0.24690   1.00
C2       0.39378    0.25019    0.24341   1.00
C3       0.58189    0.21408    0.26118   1.00
C3       0.41409    0.21603    0.25375   1.00
C3       0.58304    0.27803    0.23255   1.00
C3       0.41664    0.28300    0.23325   1.00
H1       0.52763    0.19146    0.27237   1.00
H1       0.46694    0.18898    0.26120   1.00
C5       0.52165    0.31464    0.21793   1.00
C5       0.48002    0.31709    0.22135   1.00
H1       0.59549    0.18978    0.27224   1.00
H1       0.39909    0.19116    0.26114   1.00
H1       0.59948    0.30066    0.22264   1.00
H1       0.40152    0.30734    0.22554   1.00
C6       0.54485    0.34738    0.19944   1.00
C6       0.45881    0.35502    0.21332   1.00
H2       0.56655    0.33493    0.17981   1.00
H2       0.43690    0.35963    0.23589   1.00
H2       0.52714    0.36444    0.17941   1.00
H2       0.47772    0.38014    0.21752   1.00
C6       0.56394    0.37549    0.23007   1.00
C6       0.44058    0.35696    0.17141   1.00
H2       0.57708    0.35835    0.25355   1.00
H2       0.42617    0.32929    0.16475   1.00
C6       0.59541    0.40495    0.21496   1.00
C6       0.41089    0.39061    0.16285   1.00
H2       0.54051    0.39210    0.24391   1.00
H2       0.46454    0.35920    0.15050   1.00
C6       0.63265    0.38368    0.20046   1.00
C6       0.37292    0.38599    0.18706   1.00
C6       0.57926    0.43104    0.18176   1.00
C6       0.42893    0.43125    0.17101   1.00
C6       0.60755    0.43193    0.24928   1.00
C6       0.39946    0.38894    0.11903   1.00
H2       0.64442    0.36451    0.22304   1.00
H2       0.35980    0.35731    0.18243   1.00
H2       0.62670    0.36598    0.17475   1.00
H2       0.37846    0.38928    0.21817   1.00
H2       0.65541    0.40449    0.19254   1.00
H2       0.35137    0.40797    0.17892   1.00
H2       0.60045    0.45329    0.17336   1.00
H2       0.40902    0.45455    0.16232   1.00
H2       0.57275    0.41378    0.15585   1.00
H2       0.43506    0.43498    0.20200   1.00
H2       0.55255    0.44573    0.19094   1.00
H2       0.45615    0.43494    0.15493   1.00
H2       0.61958    0.41495    0.27341   1.00
H2       0.38617    0.36090    0.11179   1.00
H2       0.62975    0.45292    0.24021   1.00
H2       0.37851    0.41178    0.11165   1.00
H2       0.58261    0.44838    0.26030   1.00
H2       0.42498    0.39283    0.10037   1.00
C4       0.98025    0.24770    0.25420   1.00
C4       1.02191    0.24834    0.25561   1.00
C3       0.95897    0.21527    0.23920   1.00
C3       1.04504    0.21516    0.24599   1.00
C3       0.95854    0.28050    0.26815   1.00
C3       1.04170    0.28325    0.26707   1.00
C2       0.89595    0.24555    0.25310   1.00
C2       1.10622    0.25019    0.25659   1.00
C3       0.91811    0.21408    0.23882   1.00
C3       1.08591    0.21603    0.24625   1.00
C3       0.91696    0.27803    0.26745   1.00
C3       1.08336    0.28300    0.26675   1.00
H1       0.97237    0.19146    0.22763   1.00
H1       1.03306    0.18898    0.23880   1.00
C5       0.97835    0.31464    0.28207   1.00
C5       1.01998    0.31709    0.27865   1.00
H1       0.90451    0.18978    0.22776   1.00
H1       1.10091    0.19116    0.23886   1.00
H1       0.90052    0.30066    0.27736   1.00
H1       1.09848    0.30734    0.27446   1.00
C6       0.95515    0.34738    0.30056   1.00
C6       1.04119    0.35502    0.28668   1.00
H2       0.93345    0.33493    0.32019   1.00
H2       1.06310    0.35963    0.26411   1.00
H2       0.97286    0.36444    0.32059   1.00
H2       1.02228    0.38014    0.28248   1.00
C6       0.93606    0.37549    0.26993   1.00
C6       1.05942    0.35696    0.32859   1.00
H2       0.92292    0.35835    0.24645   1.00
H2       1.07383    0.32929    0.33525   1.00
C6       0.90459    0.40495    0.28504   1.00
C6       1.08911    0.39061    0.33715   1.00
H2       0.95949    0.39210    0.25609   1.00
H2       1.03546    0.35920    0.34950   1.00
C6       0.86735    0.38368    0.29954   1.00
C6       1.12708    0.38599    0.31294   1.00
C6       0.92074    0.43104    0.31824   1.00
C6       1.07107    0.43125    0.32899   1.00
C6       0.89245    0.43193    0.25072   1.00
C6       1.10054    0.38894    0.38097   1.00
H2       0.85558    0.36451    0.27696   1.00
H2       1.14020    0.35731    0.31757   1.00
H2       0.87330    0.36598    0.32525   1.00
H2       1.12154    0.38928    0.28183   1.00
H2       0.84459    0.40449    0.30746   1.00
H2       1.14863    0.40797    0.32108   1.00
H2       0.89955    0.45329    0.32664   1.00
H2       1.09098    0.45455    0.33768   1.00
H2       0.92725    0.41378    0.34415   1.00
H2       1.06494    0.43498    0.29800   1.00
H2       0.94745    0.44573    0.30906   1.00
H2       1.04385    0.43494    0.34507   1.00
H2       0.88042    0.41495    0.22659   1.00
H2       1.11383    0.36090    0.38821   1.00
H2       0.87025    0.45292    0.25979   1.00
H2       1.12149    0.41178    0.38835   1.00
H2       0.91739    0.44838    0.23970   1.00
H2       1.07502    0.39283    0.39963   1.00
C4       0.74580    0.01975    0.24770   1.00
C4       0.74439    -0.02191   0.24834   1.00
C3       0.76080    0.04103    0.21527   1.00
C3       0.75401    -0.04504   0.21516   1.00
C3       0.73185    0.04146    0.28050   1.00
C3       0.73293    -0.04170   0.28325   1.00
C2       0.74690    0.10405    0.24555   1.00
C2       0.74341    -0.10622   0.25019   1.00
C3       0.76118    0.08189    0.21408   1.00
C3       0.75375    -0.08591   0.21603   1.00
C3       0.73255    0.08304    0.27803   1.00
C3       0.73325    -0.08336   0.28300   1.00
H1       0.77237    0.02763    0.19146   1.00
H1       0.76120    -0.03306   0.18898   1.00
C5       0.71793    0.02165    0.31464   1.00
C5       0.72135    -0.01998   0.31709   1.00
H1       0.77224    0.09549    0.18978   1.00
H1       0.76114    -0.10091   0.19116   1.00
H1       0.72264    0.09948    0.30066   1.00
H1       0.72554    -0.09848   0.30734   1.00
C6       0.69944    0.04485    0.34738   1.00
C6       0.71332    -0.04119   0.35502   1.00
H2       0.67981    0.06655    0.33493   1.00
H2       0.73589    -0.06310   0.35963   1.00
H2       0.67941    0.02714    0.36444   1.00
H2       0.71752    -0.02228   0.38014   1.00
C6       0.73007    0.06394    0.37549   1.00
C6       0.67141    -0.05942   0.35696   1.00
H2       0.75355    0.07708    0.35835   1.00
H2       0.66475    -0.07383   0.32929   1.00
C6       0.71496    0.09541    0.40495   1.00
C6       0.66285    -0.08911   0.39061   1.00
H2       0.74391    0.04051    0.39210   1.00
H2       0.65050    -0.03546   0.35920   1.00
C6       0.70046    0.13265    0.38368   1.00
C6       0.68706    -0.12708   0.38599   1.00
C6       0.68176    0.07926    0.43104   1.00
C6       0.67101    -0.07107   0.43125   1.00
C6       0.74928    0.10755    0.43193   1.00
C6       0.61903    -0.10054   0.38894   1.00
H2       0.72304    0.14442    0.36451   1.00
H2       0.68243    -0.14020   0.35731   1.00
H2       0.67475    0.12670    0.36598   1.00
H2       0.71817    -0.12154   0.38928   1.00
H2       0.69254    0.15541    0.40449   1.00
H2       0.67892    -0.14863   0.40797   1.00
H2       0.67336    0.10045    0.45329   1.00
H2       0.66232    -0.09098   0.45455   1.00
H2       0.65585    0.07275    0.41378   1.00
H2       0.70200    -0.06494   0.43498   1.00
H2       0.69094    0.05255    0.44573   1.00
H2       0.65493    -0.04385   0.43494   1.00
H2       0.77341    0.11958    0.41495   1.00
H2       0.61179    -0.11383   0.36090   1.00
H2       0.74021    0.12975    0.45292   1.00
H2       0.61165    -0.12149   0.41178   1.00
H2       0.76030    0.08261    0.44838   1.00
H2       0.60037    -0.07502   0.39283   1.00
C4       0.74770    0.24580    0.01975   1.00
C4       0.74834    0.24439    -0.02191   1.00
C3       0.71527    0.26080    0.04103   1.00
C3       0.71516    0.25401    -0.04504   1.00
C3       0.78050    0.23185    0.04146   1.00
C3       0.78325    0.23293    -0.04170   1.00
C2       0.74555    0.24690    0.10405   1.00
C2       0.75019    0.24341    -0.10622   1.00
C3       0.71408    0.26118    0.08189   1.00
C3       0.71603    0.25375    -0.08591   1.00
C3       0.77803    0.23255    0.08304   1.00
C3       0.78300    0.23325    -0.08336   1.00
H1       0.69146    0.27237    0.02763   1.00
H1       0.68898    0.26120    -0.03306   1.00
C5       0.81464    0.21793    0.02165   1.00
C5       0.81709    0.22135    -0.01998   1.00
H1       0.68978    0.27224    0.09549   1.00
H1       0.69116    0.26114    -0.10091   1.00
H1       0.80066    0.22264    0.09948   1.00
H1       0.80734    0.22554    -0.09848   1.00
C6       0.84738    0.19944    0.04485   1.00
C6       0.85502    0.21332    -0.04119   1.00
H2       0.83493    0.17981    0.06655   1.00
H2       0.85963    0.23589    -0.06310   1.00
H2       0.86444    0.17941    0.02714   1.00
H2       0.88014    0.21752    -0.02228   1.00
C6       0.87549    0.23007    0.06394   1.00
C6       0.85696    0.17141    -0.05942   1.00
H2       0.85835    0.25355    0.07708   1.00
H2       0.82929    0.16475    -0.07383   1.00
C6       0.90495    0.21496    0.09541   1.00
C6       0.89061    0.16285    -0.08911   1.00
H2       0.89210    0.24391    0.04051   1.00
H2       0.85920    0.15050    -0.03546   1.00
C6       0.88368    0.20046    0.13265   1.00
C6       0.88599    0.18706    -0.12708   1.00
C6       0.93104    0.18176    0.07926   1.00
C6       0.93125    0.17101    -0.07107   1.00
C6       0.93193    0.24928    0.10755   1.00
C6       0.88894    0.11903    -0.10054   1.00
H2       0.86451    0.22304    0.14442   1.00
H2       0.85731    0.18243    -0.14020   1.00
H2       0.86598    0.17475    0.12670   1.00
H2       0.88928    0.21817    -0.12154   1.00
H2       0.90449    0.19254    0.15541   1.00
H2       0.90797    0.17892    -0.14863   1.00
H2       0.95329    0.17336    0.10045   1.00
H2       0.95455    0.16232    -0.09098   1.00
H2       0.91378    0.15585    0.07275   1.00
H2       0.93498    0.20200    -0.06494   1.00
H2       0.94573    0.19094    0.05255   1.00
H2       0.93494    0.15493    -0.04385   1.00
H2       0.91495    0.27341    0.11958   1.00
H2       0.86090    0.11179    -0.11383   1.00
H2       0.95292    0.24021    0.12975   1.00
H2       0.91178    0.11165    -0.12149   1.00
H2       0.94838    0.26030    0.08261   1.00
H2       0.89283    0.10037    -0.07502   1.00
C4       0.99770    1.00420    1.23025   1.00
C4       0.99834    1.00561    1.27191   1.00
C3       0.96527    0.98920    1.20897   1.00
C3       0.96516    0.99599    1.29504   1.00
C3       1.03050    1.01815    1.20854   1.00
C3       1.03325    1.01707    1.29170   1.00
C2       0.99555    1.00310    1.14595   1.00
C2       1.00019    1.00659    1.35622   1.00
C3       0.96408    0.98882    1.16811   1.00
C3       0.96603    0.99625    1.33591   1.00
C3       1.02803    1.01745    1.16696   1.00
C3       1.03300    1.01675    1.33336   1.00
H1       0.94146    0.97763    1.22237   1.00
H1       0.93898    0.98880    1.28306   1.00
C5       1.06464    1.03207    1.22835   1.00
C5       1.06709    1.02865    1.26998   1.00
H1       0.93978    0.97776    1.15451   1.00
H1       0.94116    0.98886    1.35091   1.00
H1       1.05066    1.02736    1.15052   1.00
H1       1.05734    1.02446    1.34848   1.00
C6       1.09738    1.05056    1.20515   1.00
C6       1.10502    1.03668    1.29119   1.00
H2       1.08493    1.07019    1.18345   1.00
H2       1.10963    1.01411    1.31310   1.00
H2       1.11444    1.07059    1.22286   1.00
H2       1.13014    1.03248    1.27228   1.00
C6       1.12549    1.01993    1.18606   1.00
C6       1.10696    1.07859    1.30942   1.00
H2       1.10835    0.99645    1.17292   1.00
H2       1.07929    1.08525    1.32383   1.00
C6       1.15495    1.03504    1.15459   1.00
C6       1.14061    1.08715    1.33911   1.00
H2       1.14210    1.00609    1.20949   1.00
H2       1.10920    1.09950    1.28546   1.00
C6       1.13368    1.04954    1.11735   1.00
C6       1.13599    1.06294    1.37708   1.00
C6       1.18104    1.06824    1.17074   1.00
C6       1.18125    1.07899    1.32107   1.00
C6       1.18193    1.00072    1.14245   1.00
C6       1.13894    1.13097    1.35054   1.00
H2       1.11451    1.02696    1.10558   1.00
H2       1.10731    1.06757    1.39020   1.00
H2       1.11598    1.07525    1.12330   1.00
H2       1.13928    1.03183    1.37154   1.00
H2       1.15449    1.05746    1.09459   1.00
H2       1.15797    1.07108    1.39863   1.00
H2       1.20329    1.07664    1.14955   1.00
H2       1.20455    1.08768    1.34098   1.00
H2       1.16378    1.09415    1.17725   1.00
H2       1.18498    1.04800    1.31494   1.00
H2       1.19573    1.05906    1.19745   1.00
H2       1.18494    1.09507    1.29385   1.00
H2       1.16495    0.97659    1.13042   1.00
H2       1.11090    1.13821    1.36383   1.00
H2       1.20292    1.00979    1.12025   1.00
H2       1.16178    1.13835    1.37149   1.00
H2       1.19838    0.98970    1.16739   1.00
H2       1.14283    1.14963    1.32502   1.00
C4       1.00420    1.23025    0.99770   1.00
C4       1.00561    1.27191    0.99834   1.00
C3       0.98920    1.20897    0.96527   1.00
C3       0.99599    1.29504    0.96516   1.00
C3       1.01815    1.20854    1.03050   1.00
C3       1.01707    1.29170    1.03325   1.00
C2       1.00310    1.14595    0.99555   1.00
C2       1.00659    1.35622    1.00019   1.00
C3       0.98882    1.16811    0.96408   1.00
C3       0.99625    1.33591    0.96603   1.00
C3       1.01745    1.16696    1.02803   1.00
C3       1.01675    1.33336    1.03300   1.00
H1       0.97763    1.22237    0.94146   1.00
H1       0.98880    1.28306    0.93898   1.00
C5       1.03207    1.22835    1.06464   1.00
C5       1.02865    1.26998    1.06709   1.00
H1       0.97776    1.15451    0.93978   1.00
H1       0.98886    1.35091    0.94116   1.00
H1       1.02736    1.15052    1.05066   1.00
H1       1.02446    1.34848    1.05734   1.00
C6       1.05056    1.20515    1.09738   1.00
C6       1.03668    1.29119    1.10502   1.00
H2       1.07019    1.18345    1.08493   1.00
H2       1.01411    1.31310    1.10963   1.00
H2       1.07059    1.22286    1.11444   1.00
H2       1.03248    1.27228    1.13014   1.00
C6       1.01993    1.18606    1.12549   1.00
C6       1.07859    1.30942    1.10696   1.00
H2       0.99645    1.17292    1.10835   1.00
H2       1.08525    1.32383    1.07929   1.00
C6       1.03504    1.15459    1.15495   1.00
C6       1.08715    1.33911    1.14061   1.00
H2       1.00609    1.20949    1.14210   1.00
H2       1.09950    1.28546    1.10920   1.00
C6       1.04954    1.11735    1.13368   1.00
C6       1.06294    1.37708    1.13599   1.00
C6       1.06824    1.17074    1.18104   1.00
C6       1.07899    1.32107    1.18125   1.00
C6       1.00072    1.14245    1.18193   1.00
C6       1.13097    1.35054    1.13894   1.00
H2       1.02696    1.10558    1.11451   1.00
H2       1.06757    1.39020    1.10731   1.00
H2       1.07525    1.12330    1.11598   1.00
H2       1.03183    1.37154    1.13928   1.00
H2       1.05746    1.09459    1.15449   1.00
H2       1.07108    1.39863    1.15797   1.00
H2       1.07664    1.14955    1.20329   1.00
H2       1.08768    1.34098    1.20455   1.00
H2       1.09415    1.17725    1.16378   1.00
H2       1.04800    1.31494    1.18498   1.00
H2       1.05906    1.19745    1.19573   1.00
H2       1.09507    1.29385    1.18494   1.00
H2       0.97659    1.13042    1.16495   1.00
H2       1.13821    1.36383    1.11090   1.00
H2       1.00979    1.12025    1.20292   1.00
H2       1.13835    1.37149    1.16178   1.00
H2       0.98970    1.16739    1.19838   1.00
H2       1.14963    1.32502    1.14283   1.00
C4       0.76975    0.99770    0.99580   1.00
C4       0.72809    0.99834    0.99439   1.00
C3       0.79103    0.96527    1.01080   1.00
C3       0.70496    0.96516    1.00401   1.00
C3       0.79146    1.03050    0.98185   1.00
C3       0.70830    1.03325    0.98293   1.00
C2       0.85405    0.99555    0.99690   1.00
C2       0.64378    1.00019    0.99341   1.00
C3       0.83189    0.96408    1.01118   1.00
C3       0.66409    0.96603    1.00375   1.00
C3       0.83304    1.02803    0.98255   1.00
C3       0.66664    1.03300    0.98325   1.00
H1       0.77763    0.94146    1.02237   1.00
H1       0.71694    0.93898    1.01120   1.00
C5       0.77165    1.06464    0.96793   1.00
C5       0.73002    1.06709    0.97135   1.00
H1       0.84549    0.93978    1.02224   1.00
H1       0.64909    0.94116    1.01114   1.00
H1       0.84948    1.05066    0.97264   1.00
H1       0.65152    1.05734    0.97554   1.00
C6       0.79485    1.09738    0.94944   1.00
C6       0.70881    1.10502    0.96332   1.00
H2       0.81655    1.08493    0.92981   1.00
H2       0.68690    1.10963    0.98589   1.00
H2       0.77714    1.11444    0.92941   1.00
H2       0.72772    1.13014    0.96752   1.00
C6       0.81394    1.12549    0.98007   1.00
C6       0.69058    1.10696    0.92141   1.00
H2       0.82708    1.10835    1.00355   1.00
H2       0.67617    1.07929    0.91475   1.00
C6       0.84541    1.15495    0.96496   1.00
C6       0.66089    1.14061    0.91285   1.00
H2       0.79051    1.14210    0.99391   1.00
H2       0.71454    1.10920    0.90050   1.00
C6       0.88265    1.13368    0.95046   1.00
C6       0.62292    1.13599    0.93706   1.00
C6       0.82926    1.18104    0.93176   1.00
C6       0.67893    1.18125    0.92101   1.00
C6       0.85755    1.18193    0.99928   1.00
C6       0.64946    1.13894    0.86903   1.00
H2       0.89442    1.11451    0.97304   1.00
H2       0.60980    1.10731    0.93243   1.00
H2       0.87670    1.11598    0.92475   1.00
H2       0.62846    1.13928    0.96817   1.00
H2       0.90541    1.15449    0.94254   1.00
H2       0.60137    1.15797    0.92892   1.00
H2       0.85045    1.20329    0.92336   1.00
H2       0.65902    1.20455    0.91232   1.00
H2       0.82275    1.16378    0.90585   1.00
H2       0.68506    1.18498    0.95200   1.00
H2       0.80255    1.19573    0.94094   1.00
H2       0.70615    1.18494    0.90493   1.00
H2       0.86958    1.16495    1.02341   1.00
H2       0.63617    1.11090    0.86179   1.00
H2       0.87975    1.20292    0.99021   1.00
H2       0.62851    1.16178    0.86165   1.00
H2       0.83261    1.19838    1.01030   1.00
H2       0.67498    1.14283    0.85037   1.00
C4       1.23025    0.99770    1.00420   1.00
C4       1.27191    0.99834    1.00561   1.00
C3       1.20897    0.96527    0.98920   1.00
C3       1.29504    0.96516    0.99599   1.00
C3       1.20854    1.03050    1.01815   1.00
C3       1.29170    1.03325    1.01707   1.00
C2       1.14595    0.99555    1.00310   1.00
C2       1.35622    1.00019    1.00659   1.00
C3       1.16811    0.96408    0.98882   1.00
C3       1.33591    0.96603    0.99625   1.00
C3       1.16696    1.02803    1.01745   1.00
C3       1.33336    1.03300    1.01675   1.00
H1       1.22237    0.94146    0.97763   1.00
H1       1.28306    0.93898    0.98880   1.00
C5       1.22835    1.06464    1.03207   1.00
C5       1.26998    1.06709    1.02865   1.00
H1       1.15451    0.93978    0.97776   1.00
H1       1.35091    0.94116    0.98886   1.00
H1       1.15052    1.05066    1.02736   1.00
H1       1.34848    1.05734    1.02446   1.00
C6       1.20515    1.09738    1.05056   1.00
C6       1.29119    1.10502    1.03668   1.00
H2       1.18345    1.08493    1.07019   1.00
H2       1.31310    1.10963    1.01411   1.00
H2       1.22286    1.11444    1.07059   1.00
H2       1.27228    1.13014    1.03248   1.00
C6       1.18606    1.12549    1.01993   1.00
C6       1.30942    1.10696    1.07859   1.00
H2       1.17292    1.10835    0.99645   1.00
H2       1.32383    1.07929    1.08525   1.00
C6       1.15459    1.15495    1.03504   1.00
C6       1.33911    1.14061    1.08715   1.00
H2       1.20949    1.14210    1.00609   1.00
H2       1.28546    1.10920    1.09950   1.00
C6       1.11735    1.13368    1.04954   1.00
C6       1.37708    1.13599    1.06294   1.00
C6       1.17074    1.18104    1.06824   1.00
C6       1.32107    1.18125    1.07899   1.00
C6       1.14245    1.18193    1.00072   1.00
C6       1.35054    1.13894    1.13097   1.00
H2       1.10558    1.11451    1.02696   1.00
H2       1.39020    1.10731    1.06757   1.00
H2       1.12330    1.11598    1.07525   1.00
H2       1.37154    1.13928    1.03183   1.00
H2       1.09459    1.15449    1.05746   1.00
H2       1.39863    1.15797    1.07108   1.00
H2       1.14955    1.20329    1.07664   1.00
H2       1.34098    1.20455    1.08768   1.00
H2       1.17725    1.16378    1.09415   1.00
H2       1.31494    1.18498    1.04800   1.00
H2       1.19745    1.19573    1.05906   1.00
H2       1.29385    1.18494    1.09507   1.00
H2       1.13042    1.16495    0.97659   1.00
H2       1.36383    1.11090    1.13821   1.00
H2       1.12025    1.20292    1.00979   1.00
H2       1.37149    1.16178    1.13835   1.00
H2       1.16739    1.19838    0.98970   1.00
H2       1.32502    1.14283    1.14963   1.00
C4       0.99580    0.76975    0.99770   1.00
C4       0.99439    0.72809    0.99834   1.00
C3       1.01080    0.79103    0.96527   1.00
C3       1.00401    0.70496    0.96516   1.00
C3       0.98185    0.79146    1.03050   1.00
C3       0.98293    0.70830    1.03325   1.00
C2       0.99690    0.85405    0.99555   1.00
C2       0.99341    0.64378    1.00019   1.00
C3       1.01118    0.83189    0.96408   1.00
C3       1.00375    0.66409    0.96603   1.00
C3       0.98255    0.83304    1.02803   1.00
C3       0.98325    0.66664    1.03300   1.00
H1       1.02237    0.77763    0.94146   1.00
H1       1.01120    0.71694    0.93898   1.00
C5       0.96793    0.77165    1.06464   1.00
C5       0.97135    0.73002    1.06709   1.00
H1       1.02224    0.84549    0.93978   1.00
H1       1.01114    0.64909    0.94116   1.00
H1       0.97264    0.84948    1.05066   1.00
H1       0.97554    0.65152    1.05734   1.00
C6       0.94944    0.79485    1.09738   1.00
C6       0.96332    0.70881    1.10502   1.00
H2       0.92981    0.81655    1.08493   1.00
H2       0.98589    0.68690    1.10963   1.00
H2       0.92941    0.77714    1.11444   1.00
H2       0.96752    0.72772    1.13014   1.00
C6       0.98007    0.81394    1.12549   1.00
C6       0.92141    0.69058    1.10696   1.00
H2       1.00355    0.82708    1.10835   1.00
H2       0.91475    0.67617    1.07929   1.00
C6       0.96496    0.84541    1.15495   1.00
C6       0.91285    0.66089    1.14061   1.00
H2       0.99391    0.79051    1.14210   1.00
H2       0.90050    0.71454    1.10920   1.00
C6       0.95046    0.88265    1.13368   1.00
C6       0.93706    0.62292    1.13599   1.00
C6       0.93176    0.82926    1.18104   1.00
C6       0.92101    0.67893    1.18125   1.00
C6       0.99928    0.85755    1.18193   1.00
C6       0.86903    0.64946    1.13894   1.00
H2       0.97304    0.89442    1.11451   1.00
H2       0.93243    0.60980    1.10731   1.00
H2       0.92475    0.87670    1.11598   1.00
H2       0.96817    0.62846    1.13928   1.00
H2       0.94254    0.90541    1.15449   1.00
H2       0.92892    0.60137    1.15797   1.00
H2       0.92336    0.85045    1.20329   1.00
H2       0.91232    0.65902    1.20455   1.00
H2       0.90585    0.82275    1.16378   1.00
H2       0.95200    0.68506    1.18498   1.00
H2       0.94094    0.80255    1.19573   1.00
H2       0.90493    0.70615    1.18494   1.00
H2       1.02341    0.86958    1.16495   1.00
H2       0.86179    0.63617    1.11090   1.00
H2       0.99021    0.87975    1.20292   1.00
H2       0.86165    0.62851    1.16178   1.00
H2       1.01030    0.83261    1.19838   1.00
H2       0.85037    0.67498    1.14283   1.00
C4       0.99770    0.99580    0.76975   1.00
C4       0.99834    0.99439    0.72809   1.00
C3       0.96527    1.01080    0.79103   1.00
C3       0.96516    1.00401    0.70496   1.00
C3       1.03050    0.98185    0.79146   1.00
C3       1.03325    0.98293    0.70830   1.00
C2       0.99555    0.99690    0.85405   1.00
C2       1.00019    0.99341    0.64378   1.00
C3       0.96408    1.01118    0.83189   1.00
C3       0.96603    1.00375    0.66409   1.00
C3       1.02803    0.98255    0.83304   1.00
C3       1.03300    0.98325    0.66664   1.00
H1       0.94146    1.02237    0.77763   1.00
H1       0.93898    1.01120    0.71694   1.00
C5       1.06464    0.96793    0.77165   1.00
C5       1.06709    0.97135    0.73002   1.00
H1       0.93978    1.02224    0.84549   1.00
H1       0.94116    1.01114    0.64909   1.00
H1       1.05066    0.97264    0.84948   1.00
H1       1.05734    0.97554    0.65152   1.00
C6       1.09738    0.94944    0.79485   1.00
C6       1.10502    0.96332    0.70881   1.00
H2       1.08493    0.92981    0.81655   1.00
H2       1.10963    0.98589    0.68690   1.00
H2       1.11444    0.92941    0.77714   1.00
H2       1.13014    0.96752    0.72772   1.00
C6       1.12549    0.98007    0.81394   1.00
C6       1.10696    0.92141    0.69058   1.00
H2       1.10835    1.00355    0.82708   1.00
H2       1.07929    0.91475    0.67617   1.00
C6       1.15495    0.96496    0.84541   1.00
C6       1.14061    0.91285    0.66089   1.00
H2       1.14210    0.99391    0.79051   1.00
H2       1.10920    0.90050    0.71454   1.00
C6       1.13368    0.95046    0.88265   1.00
C6       1.13599    0.93706    0.62292   1.00
C6       1.18104    0.93176    0.82926   1.00
C6       1.18125    0.92101    0.67893   1.00
C6       1.18193    0.99928    0.85755   1.00
C6       1.13894    0.86903    0.64946   1.00
H2       1.11451    0.97304    0.89442   1.00
H2       1.10731    0.93243    0.60980   1.00
H2       1.11598    0.92475    0.87670   1.00
H2       1.13928    0.96817    0.62846   1.00
H2       1.15449    0.94254    0.90541   1.00
H2       1.15797    0.92892    0.60137   1.00
H2       1.20329    0.92336    0.85045   1.00
H2       1.20455    0.91232    0.65902   1.00
H2       1.16378    0.90585    0.82275   1.00
H2       1.18498    0.95200    0.68506   1.00
H2       1.19573    0.94094    0.80255   1.00
H2       1.18494    0.90493    0.70615   1.00
H2       1.16495    1.02341    0.86958   1.00
H2       1.11090    0.86179    0.63617   1.00
H2       1.20292    0.99021    0.87975   1.00
H2       1.16178    0.86165    0.62851   1.00
H2       1.19838    1.01030    0.83261   1.00
H2       1.14283    0.85037    0.67498   1.00
C4       0.49770    0.50420    1.23025   1.00
C4       0.49834    0.50561    1.27191   1.00
C3       0.46527    0.48920    1.20897   1.00
C3       0.46516    0.49599    1.29504   1.00
C3       0.53050    0.51815    1.20854   1.00
C3       0.53325    0.51707    1.29170   1.00
C2       0.49555    0.50310    1.14595   1.00
C2       0.50019    0.50659    1.35622   1.00
C3       0.46408    0.48882    1.16811   1.00
C3       0.46603    0.49625    1.33591   1.00
C3       0.52803    0.51745    1.16696   1.00
C3       0.53300    0.51675    1.33336   1.00
H1       0.44146    0.47763    1.22237   1.00
H1       0.43898    0.48880    1.28306   1.00
C5       0.56464    0.53207    1.22835   1.00
C5       0.56709    0.52865    1.26998   1.00
H1       0.43978    0.47776    1.15451   1.00
H1       0.44116    0.48886    1.35091   1.00
H1       0.55066    0.52736    1.15052   1.00
H1       0.55734    0.52446    1.34848   1.00
C6       0.59738    0.55056    1.20515   1.00
C6       0.60502    0.53668    1.29119   1.00
H2       0.58493    0.57019    1.18345   1.00
H2       0.60963    0.51411    1.31310   1.00
H2       0.61444    0.57059    1.22286   1.00
H2       0.63014    0.53248    1.27228   1.00
C6       0.62549    0.51993    1.18606   1.00
C6       0.60696    0.57859    1.30942   1.00
H2       0.60835    0.49645    1.17292   1.00
H2       0.57929    0.58525    1.32383   1.00
C6       0.65495    0.53504    1.15459   1.00
C6       0.64061    0.58715    1.33911   1.00
H2       0.64210    0.50609    1.20949   1.00
H2       0.60920    0.59950    1.28546   1.00
C6       0.63368    0.54954    1.11735   1.00
C6       0.63599    0.56294    1.37708   1.00
C6       0.68104    0.56824    1.17074   1.00
C6       0.68125    0.57899    1.32107   1.00
C6       0.68193    0.50072    1.14245   1.00
C6       0.63894    0.63097    1.35054   1.00
H2       0.61451    0.52696    1.10558   1.00
H2       0.60731    0.56757    1.39020   1.00
H2       0.61598    0.57525    1.12330   1.00
H2       0.63928    0.53183    1.37154   1.00
H2       0.65449    0.55746    1.09459   1.00
H2       0.65797    0.57108    1.39863   1.00
H2       0.70329    0.57664    1.14955   1.00
H2       0.70455    0.58768    1.34098   1.00
H2       0.66378    0.59415    1.17725   1.00
H2       0.68498    0.54800    1.31494   1.00
H2       0.69573    0.55906    1.19745   1.00
H2       0.68494    0.59507    1.29385   1.00
H2       0.66495    0.47659    1.13042   1.00
H2       0.61090    0.63821    1.36383   1.00
H2       0.70292    0.50979    1.12025   1.00
H2       0.66178    0.63835    1.37149   1.00
H2       0.69838    0.48970    1.16739   1.00
H2       0.64283    0.64963    1.32502   1.00
C4       0.50420    0.73025    0.99770   1.00
C4       0.50561    0.77191    0.99834   1.00
C3       0.48920    0.70897    0.96527   1.00
C3       0.49599    0.79504    0.96516   1.00
C3       0.51815    0.70854    1.03050   1.00
C3       0.51707    0.79170    1.03325   1.00
C2       0.50310    0.64595    0.99555   1.00
C2       0.50659    0.85622    1.00019   1.00
C3       0.48882    0.66811    0.96408   1.00
C3       0.49625    0.83591    0.96603   1.00
C3       0.51745    0.66696    1.02803   1.00
C3       0.51675    0.83336    1.03300   1.00
H1       0.47763    0.72237    0.94146   1.00
H1       0.48880    0.78306    0.93898   1.00
C5       0.53207    0.72835    1.06464   1.00
C5       0.52865    0.76998    1.06709   1.00
H1       0.47776    0.65451    0.93978   1.00
H1       0.48886    0.85091    0.94116   1.00
H1       0.52736    0.65052    1.05066   1.00
H1       0.52446    0.84848    1.05734   1.00
C6       0.55056    0.70515    1.09738   1.00
C6       0.53668    0.79119    1.10502   1.00
H2       0.57019    0.68345    1.08493   1.00
H2       0.51411    0.81310    1.10963   1.00
H2       0.57059    0.72286    1.11444   1.00
H2       0.53248    0.77228    1.13014   1.00
C6       0.51993    0.68606    1.12549   1.00
C6       0.57859    0.80942    1.10696   1.00
H2       0.49645    0.67292    1.10835   1.00
H2       0.58525    0.82383    1.07929   1.00
C6       0.53504    0.65459    1.15495   1.00
C6       0.58715    0.83911    1.14061   1.00
H2       0.50609    0.70949    1.14210   1.00
H2       0.59950    0.78546    1.10920   1.00
C6       0.54954    0.61735    1.13368   1.00
C6       0.56294    0.87708    1.13599   1.00
C6       0.56824    0.67074    1.18104   1.00
C6       0.57899    0.82107    1.18125   1.00
C6       0.50072    0.64245    1.18193   1.00
C6       0.63097    0.85054    1.13894   1.00
H2       0.52696    0.60558    1.11451   1.00
H2       0.56757    0.89020    1.10731   1.00
H2       0.57525    0.62330    1.11598   1.00
H2       0.53183    0.87154    1.13928   1.00
H2       0.55746    0.59459    1.15449   1.00
H2       0.57108    0.89863    1.15797   1.00
H2       0.57664    0.64955    1.20329   1.00
H2       0.58768    0.84098    1.20455   1.00
H2       0.59415    0.67725    1.16378   1.00
H2       0.54800    0.81494    1.18498   1.00
H2       0.55906    0.69745    1.19573   1.00
H2       0.59507    0.79385    1.18494   1.00
H2       0.47659    0.63042    1.16495   1.00
H2       0.63821    0.86383    1.11090   1.00
H2       0.50979    0.62025    1.20292   1.00
H2       0.63835    0.87149    1.16178   1.00
H2       0.48970    0.66739    1.19838   1.00
H2       0.64963    0.82502    1.14283   1.00
C4       0.26975    0.49770    0.99580   1.00
C4       0.22809    0.49834    0.99439   1.00
C3       0.29103    0.46527    1.01080   1.00
C3       0.20496    0.46516    1.00401   1.00
C3       0.29146    0.53050    0.98185   1.00
C3       0.20830    0.53325    0.98293   1.00
C2       0.35405    0.49555    0.99690   1.00
C2       0.14378    0.50019    0.99341   1.00
C3       0.33189    0.46408    1.01118   1.00
C3       0.16409    0.46603    1.00375   1.00
C3       0.33304    0.52803    0.98255   1.00
C3       0.16664    0.53300    0.98325   1.00
H1       0.27763    0.44146    1.02237   1.00
H1       0.21694    0.43898    1.01120   1.00
C5       0.27165    0.56464    0.96793   1.00
C5       0.23002    0.56709    0.97135   1.00
H1       0.34549    0.43978    1.02224   1.00
H1       0.14909    0.44116    1.01114   1.00
H1       0.34948    0.55066    0.97264   1.00
H1       0.15152    0.55734    0.97554   1.00
C6       0.29485    0.59738    0.94944   1.00
C6       0.20881    0.60502    0.96332   1.00
H2       0.31655    0.58493    0.92981   1.00
H2       0.18690    0.60963    0.98589   1.00
H2       0.27714    0.61444    0.92941   1.00
H2       0.22772    0.63014    0.96752   1.00
C6       0.31394    0.62549    0.98007   1.00
C6       0.19058    0.60696    0.92141   1.00
H2       0.32708    0.60835    1.00355   1.00
H2       0.17617    0.57929    0.91475   1.00
C6       0.34541    0.65495    0.96496   1.00
C6       0.16089    0.64061    0.91285   1.00
H2       0.29051    0.64210    0.99391   1.00
H2       0.21454    0.60920    0.90050   1.00
C6       0.38265    0.63368    0.95046   1.00
C6       0.12292    0.63599    0.93706   1.00
C6       0.32926    0.68104    0.93176   1.00
C6       0.17893    0.68125    0.92101   1.00
C6       0.35755    0.68193    0.99928   1.00
C6       0.14946    0.63894    0.86903   1.00
H2       0.39442    0.61451    0.97304   1.00
H2       0.10980    0.60731    0.93243   1.00
H2       0.37670    0.61598    0.92475   1.00
H2       0.12846    0.63928    0.96817   1.00
H2       0.40541    0.65449    0.94254   1.00
H2       0.10137    0.65797    0.92892   1.00
H2       0.35045    0.70329    0.92336   1.00
H2       0.15902    0.70455    0.91232   1.00
H2       0.32275    0.66378    0.90585   1.00
H2       0.18506    0.68498    0.95200   1.00
H2       0.30255    0.69573    0.94094   1.00
H2       0.20615    0.68494    0.90493   1.00
H2       0.36958    0.66495    1.02341   1.00
H2       0.13617    0.61090    0.86179   1.00
H2       0.37975    0.70292    0.99021   1.00
H2       0.12851    0.66178    0.86165   1.00
H2       0.33261    0.69838    1.01030   1.00
H2       0.17498    0.64283    0.85037   1.00
C4       0.73025    0.49770    1.00420   1.00
C4       0.77191    0.49834    1.00561   1.00
C3       0.70897    0.46527    0.98920   1.00
C3       0.79504    0.46516    0.99599   1.00
C3       0.70854    0.53050    1.01815   1.00
C3       0.79170    0.53325    1.01707   1.00
C2       0.64595    0.49555    1.00310   1.00
C2       0.85622    0.50019    1.00659   1.00
C3       0.66811    0.46408    0.98882   1.00
C3       0.83591    0.46603    0.99625   1.00
C3       0.66696    0.52803    1.01745   1.00
C3       0.83336    0.53300    1.01675   1.00
H1       0.72237    0.44146    0.97763   1.00
H1       0.78306    0.43898    0.98880   1.00
C5       0.72835    0.56464    1.03207   1.00
C5       0.76998    0.56709    1.02865   1.00
H1       0.65451    0.43978    0.97776   1.00
H1       0.85091    0.44116    0.98886   1.00
H1       0.65052    0.55066    1.02736   1.00
H1       0.84848    0.55734    1.02446   1.00
C6       0.70515    0.59738    1.05056   1.00
C6       0.79119    0.60502    1.03668   1.00
H2       0.68345    0.58493    1.07019   1.00
H2       0.81310    0.60963    1.01411   1.00
H2       0.72286    0.61444    1.07059   1.00
H2       0.77228    0.63014    1.03248   1.00
C6       0.68606    0.62549    1.01993   1.00
C6       0.80942    0.60696    1.07859   1.00
H2       0.67292    0.60835    0.99645   1.00
H2       0.82383    0.57929    1.08525   1.00
C6       0.65459    0.65495    1.03504   1.00
C6       0.83911    0.64061    1.08715   1.00
H2       0.70949    0.64210    1.00609   1.00
H2       0.78546    0.60920    1.09950   1.00
C6       0.61735    0.63368    1.04954   1.00
C6       0.87708    0.63599    1.06294   1.00
C6       0.67074    0.68104    1.06824   1.00
C6       0.82107    0.68125    1.07899   1.00
C6       0.64245    0.68193    1.00072   1.00
C6       0.85054    0.63894    1.13097   1.00
H2       0.60558    0.61451    1.02696   1.00
H2       0.89020    0.60731    1.06757   1.00
H2       0.62330    0.61598    1.07525   1.00
H2       0.87154    0.63928    1.03183   1.00
H2       0.59459    0.65449    1.05746   1.00
H2       0.89863    0.65797    1.07108   1.00
H2       0.64955    0.70329    1.07664   1.00
H2       0.84098    0.70455    1.08768   1.00
H2       0.67725    0.66378    1.09415   1.00
H2       0.81494    0.68498    1.04800   1.00
H2       0.69745    0.69573    1.05906   1.00
H2       0.79385    0.68494    1.09507   1.00
H2       0.63042    0.66495    0.97659   1.00
H2       0.86383    0.61090    1.13821   1.00
H2       0.62025    0.70292    1.00979   1.00
H2       0.87149    0.66178    1.13835   1.00
H2       0.66739    0.69838    0.98970   1.00
H2       0.82502    0.64283    1.14963   1.00
C4       0.49580    0.26975    0.99770   1.00
C4       0.49439    0.22809    0.99834   1.00
C3       0.51080    0.29103    0.96527   1.00
C3       0.50401    0.20496    0.96516   1.00
C3       0.48185    0.29146    1.03050   1.00
C3       0.48293    0.20830    1.03325   1.00
C2       0.49690    0.35405    0.99555   1.00
C2       0.49341    0.14378    1.00019   1.00
C3       0.51118    0.33189    0.96408   1.00
C3       0.50375    0.16409    0.96603   1.00
C3       0.48255    0.33304    1.02803   1.00
C3       0.48325    0.16664    1.03300   1.00
H1       0.52237    0.27763    0.94146   1.00
H1       0.51120    0.21694    0.93898   1.00
C5       0.46793    0.27165    1.06464   1.00
C5       0.47135    0.23002    1.06709   1.00
H1       0.52224    0.34549    0.93978   1.00
H1       0.51114    0.14909    0.94116   1.00
H1       0.47264    0.34948    1.05066   1.00
H1       0.47554    0.15152    1.05734   1.00
C6       0.44944    0.29485    1.09738   1.00
C6       0.46332    0.20881    1.10502   1.00
H2       0.42981    0.31655    1.08493   1.00
H2       0.48589    0.18690    1.10963   1.00
H2       0.42941    0.27714    1.11444   1.00
H2       0.46752    0.22772    1.13014   1.00
C6       0.48007    0.31394    1.12549   1.00
C6       0.42141    0.19058    1.10696   1.00
H2       0.50355    0.32708    1.10835   1.00
H2       0.41475    0.17617    1.07929   1.00
C6       0.46496    0.34541    1.15495   1.00
C6       0.41285    0.16089    1.14061   1.00
H2       0.49391    0.29051    1.14210   1.00
H2       0.40050    0.21454    1.10920   1.00
C6       0.45046    0.38265    1.13368   1.00
C6       0.43706    0.12292    1.13599   1.00
C6       0.43176    0.32926    1.18104   1.00
C6       0.42101    0.17893    1.18125   1.00
C6       0.49928    0.35755    1.18193   1.00
C6       0.36903    0.14946    1.13894   1.00
H2       0.47304    0.39442    1.11451   1.00
H2       0.43243    0.10980    1.10731   1.00
H2       0.42475    0.37670    1.11598   1.00
H2       0.46817    0.12846    1.13928   1.00
H2       0.44254    0.40541    1.15449   1.00
H2       0.42892    0.10137    1.15797   1.00
H2       0.42336    0.35045    1.20329   1.00
H2       0.41232    0.15902    1.20455   1.00
H2       0.40585    0.32275    1.16378   1.00
H2       0.45200    0.18506    1.18498   1.00
H2       0.44094    0.30255    1.19573   1.00
H2       0.40493    0.20615    1.18494   1.00
H2       0.52341    0.36958    1.16495   1.00
H2       0.36179    0.13617    1.11090   1.00
H2       0.49021    0.37975    1.20292   1.00
H2       0.36165    0.12851    1.16178   1.00
H2       0.51030    0.33261    1.19838   1.00
H2       0.35037    0.17498    1.14283   1.00
C4       0.49770    0.49580    0.76975   1.00
C4       0.49834    0.49439    0.72809   1.00
C3       0.46527    0.51080    0.79103   1.00
C3       0.46516    0.50401    0.70496   1.00
C3       0.53050    0.48185    0.79146   1.00
C3       0.53325    0.48293    0.70830   1.00
C2       0.49555    0.49690    0.85405   1.00
C2       0.50019    0.49341    0.64378   1.00
C3       0.46408    0.51118    0.83189   1.00
C3       0.46603    0.50375    0.66409   1.00
C3       0.52803    0.48255    0.83304   1.00
C3       0.53300    0.48325    0.66664   1.00
H1       0.44146    0.52237    0.77763   1.00
H1       0.43898    0.51120    0.71694   1.00
C5       0.56464    0.46793    0.77165   1.00
C5       0.56709    0.47135    0.73002   1.00
H1       0.43978    0.52224    0.84549   1.00
H1       0.44116    0.51114    0.64909   1.00
H1       0.55066    0.47264    0.84948   1.00
H1       0.55734    0.47554    0.65152   1.00
C6       0.59738    0.44944    0.79485   1.00
C6       0.60502    0.46332    0.70881   1.00
H2       0.58493    0.42981    0.81655   1.00
H2       0.60963    0.48589    0.68690   1.00
H2       0.61444    0.42941    0.77714   1.00
H2       0.63014    0.46752    0.72772   1.00
C6       0.62549    0.48007    0.81394   1.00
C6       0.60696    0.42141    0.69058   1.00
H2       0.60835    0.50355    0.82708   1.00
H2       0.57929    0.41475    0.67617   1.00
C6       0.65495    0.46496    0.84541   1.00
C6       0.64061    0.41285    0.66089   1.00
H2       0.64210    0.49391    0.79051   1.00
H2       0.60920    0.40050    0.71454   1.00
C6       0.63368    0.45046    0.88265   1.00
C6       0.63599    0.43706    0.62292   1.00
C6       0.68104    0.43176    0.82926   1.00
C6       0.68125    0.42101    0.67893   1.00
C6       0.68193    0.49928    0.85755   1.00
C6       0.63894    0.36903    0.64946   1.00
H2       0.61451    0.47304    0.89442   1.00
H2       0.60731    0.43243    0.60980   1.00
H2       0.61598    0.42475    0.87670   1.00
H2       0.63928    0.46817    0.62846   1.00
H2       0.65449    0.44254    0.90541   1.00
H2       0.65797    0.42892    0.60137   1.00
H2       0.70329    0.42336    0.85045   1.00
H2       0.70455    0.41232    0.65902   1.00
H2       0.66378    0.40585    0.82275   1.00
H2       0.68498    0.45200    0.68506   1.00
H2       0.69573    0.44094    0.80255   1.00
H2       0.68494    0.40493    0.70615   1.00
H2       0.66495    0.52341    0.86958   1.00
H2       0.61090    0.36179    0.63617   1.00
H2       0.70292    0.49021    0.87975   1.00
H2       0.66178    0.36165    0.62851   1.00
H2       0.69838    0.51030    0.83261   1.00
H2       0.64283    0.35037    0.67498   1.00
C4       0.49770    1.00420    0.73025   1.00
C4       0.49834    1.00561    0.77191   1.00
C3       0.46527    0.98920    0.70897   1.00
C3       0.46516    0.99599    0.79504   1.00
C3       0.53050    1.01815    0.70854   1.00
C3       0.53325    1.01707    0.79170   1.00
C2       0.49555    1.00310    0.64595   1.00
C2       0.50019    1.00659    0.85622   1.00
C3       0.46408    0.98882    0.66811   1.00
C3       0.46603    0.99625    0.83591   1.00
C3       0.52803    1.01745    0.66696   1.00
C3       0.53300    1.01675    0.83336   1.00
H1       0.44146    0.97763    0.72237   1.00
H1       0.43898    0.98880    0.78306   1.00
C5       0.56464    1.03207    0.72835   1.00
C5       0.56709    1.02865    0.76998   1.00
H1       0.43978    0.97776    0.65451   1.00
H1       0.44116    0.98886    0.85091   1.00
H1       0.55066    1.02736    0.65052   1.00
H1       0.55734    1.02446    0.84848   1.00
C6       0.59738    1.05056    0.70515   1.00
C6       0.60502    1.03668    0.79119   1.00
H2       0.58493    1.07019    0.68345   1.00
H2       0.60963    1.01411    0.81310   1.00
H2       0.61444    1.07059    0.72286   1.00
H2       0.63014    1.03248    0.77228   1.00
C6       0.62549    1.01993    0.68606   1.00
C6       0.60696    1.07859    0.80942   1.00
H2       0.60835    0.99645    0.67292   1.00
H2       0.57929    1.08525    0.82383   1.00
C6       0.65495    1.03504    0.65459   1.00
C6       0.64061    1.08715    0.83911   1.00
H2       0.64210    1.00609    0.70949   1.00
H2       0.60920    1.09950    0.78546   1.00
C6       0.63368    1.04954    0.61735   1.00
C6       0.63599    1.06294    0.87708   1.00
C6       0.68104    1.06824    0.67074   1.00
C6       0.68125    1.07899    0.82107   1.00
C6       0.68193    1.00072    0.64245   1.00
C6       0.63894    1.13097    0.85054   1.00
H2       0.61451    1.02696    0.60558   1.00
H2       0.60731    1.06757    0.89020   1.00
H2       0.61598    1.07525    0.62330   1.00
H2       0.63928    1.03183    0.87154   1.00
H2       0.65449    1.05746    0.59459   1.00
H2       0.65797    1.07108    0.89863   1.00
H2       0.70329    1.07664    0.64955   1.00
H2       0.70455    1.08768    0.84098   1.00
H2       0.66378    1.09415    0.67725   1.00
H2       0.68498    1.04800    0.81494   1.00
H2       0.69573    1.05906    0.69745   1.00
H2       0.68494    1.09507    0.79385   1.00
H2       0.66495    0.97659    0.63042   1.00
H2       0.61090    1.13821    0.86383   1.00
H2       0.70292    1.00979    0.62025   1.00
H2       0.66178    1.13835    0.87149   1.00
H2       0.69838    0.98970    0.66739   1.00
H2       0.64283    1.14963    0.82502   1.00
C4       0.50420    1.23025    0.49770   1.00
C4       0.50561    1.27191    0.49834   1.00
C3       0.48920    1.20897    0.46527   1.00
C3       0.49599    1.29504    0.46516   1.00
C3       0.51815    1.20854    0.53050   1.00
C3       0.51707    1.29170    0.53325   1.00
C2       0.50310    1.14595    0.49555   1.00
C2       0.50659    1.35622    0.50019   1.00
C3       0.48882    1.16811    0.46408   1.00
C3       0.49625    1.33591    0.46603   1.00
C3       0.51745    1.16696    0.52803   1.00
C3       0.51675    1.33336    0.53300   1.00
H1       0.47763    1.22237    0.44146   1.00
H1       0.48880    1.28306    0.43898   1.00
C5       0.53207    1.22835    0.56464   1.00
C5       0.52865    1.26998    0.56709   1.00
H1       0.47776    1.15451    0.43978   1.00
H1       0.48886    1.35091    0.44116   1.00
H1       0.52736    1.15052    0.55066   1.00
H1       0.52446    1.34848    0.55734   1.00
C6       0.55056    1.20515    0.59738   1.00
C6       0.53668    1.29119    0.60502   1.00
H2       0.57019    1.18345    0.58493   1.00
H2       0.51411    1.31310    0.60963   1.00
H2       0.57059    1.22286    0.61444   1.00
H2       0.53248    1.27228    0.63014   1.00
C6       0.51993    1.18606    0.62549   1.00
C6       0.57859    1.30942    0.60696   1.00
H2       0.49645    1.17292    0.60835   1.00
H2       0.58525    1.32383    0.57929   1.00
C6       0.53504    1.15459    0.65495   1.00
C6       0.58715    1.33911    0.64061   1.00
H2       0.50609    1.20949    0.64210   1.00
H2       0.59950    1.28546    0.60920   1.00
C6       0.54954    1.11735    0.63368   1.00
C6       0.56294    1.37708    0.63599   1.00
C6       0.56824    1.17074    0.68104   1.00
C6       0.57899    1.32107    0.68125   1.00
C6       0.50072    1.14245    0.68193   1.00
C6       0.63097    1.35054    0.63894   1.00
H2       0.52696    1.10558    0.61451   1.00
H2       0.56757    1.39020    0.60731   1.00
H2       0.57525    1.12330    0.61598   1.00
H2       0.53183    1.37154    0.63928   1.00
H2       0.55746    1.09459    0.65449   1.00
H2       0.57108    1.39863    0.65797   1.00
H2       0.57664    1.14955    0.70329   1.00
H2       0.58768    1.34098    0.70455   1.00
H2       0.59415    1.17725    0.66378   1.00
H2       0.54800    1.31494    0.68498   1.00
H2       0.55906    1.19745    0.69573   1.00
H2       0.59507    1.29385    0.68494   1.00
H2       0.47659    1.13042    0.66495   1.00
H2       0.63821    1.36383    0.61090   1.00
H2       0.50979    1.12025    0.70292   1.00
H2       0.63835    1.37149    0.66178   1.00
H2       0.48970    1.16739    0.69838   1.00
H2       0.64963    1.32502    0.64283   1.00
C4       0.26975    0.99770    0.49580   1.00
C4       0.22809    0.99834    0.49439   1.00
C3       0.29103    0.96527    0.51080   1.00
C3       0.20496    0.96516    0.50401   1.00
C3       0.29146    1.03050    0.48185   1.00
C3       0.20830    1.03325    0.48293   1.00
C2       0.35405    0.99555    0.49690   1.00
C2       0.14378    1.00019    0.49341   1.00
C3       0.33189    0.96408    0.51118   1.00
C3       0.16409    0.96603    0.50375   1.00
C3       0.33304    1.02803    0.48255   1.00
C3       0.16664    1.03300    0.48325   1.00
H1       0.27763    0.94146    0.52237   1.00
H1       0.21694    0.93898    0.51120   1.00
C5       0.27165    1.06464    0.46793   1.00
C5       0.23002    1.06709    0.47135   1.00
H1       0.34549    0.93978    0.52224   1.00
H1       0.14909    0.94116    0.51114   1.00
H1       0.34948    1.05066    0.47264   1.00
H1       0.15152    1.05734    0.47554   1.00
C6       0.29485    1.09738    0.44944   1.00
C6       0.20881    1.10502    0.46332   1.00
H2       0.31655    1.08493    0.42981   1.00
H2       0.18690    1.10963    0.48589   1.00
H2       0.27714    1.11444    0.42941   1.00
H2       0.22772    1.13014    0.46752   1.00
C6       0.31394    1.12549    0.48007   1.00
C6       0.19058    1.10696    0.42141   1.00
H2       0.32708    1.10835    0.50355   1.00
H2       0.17617    1.07929    0.41475   1.00
C6       0.34541    1.15495    0.46496   1.00
C6       0.16089    1.14061    0.41285   1.00
H2       0.29051    1.14210    0.49391   1.00
H2       0.21454    1.10920    0.40050   1.00
C6       0.38265    1.13368    0.45046   1.00
C6       0.12292    1.13599    0.43706   1.00
C6       0.32926    1.18104    0.43176   1.00
C6       0.17893    1.18125    0.42101   1.00
C6       0.35755    1.18193    0.49928   1.00
C6       0.14946    1.13894    0.36903   1.00
H2       0.39442    1.11451    0.47304   1.00
H2       0.10980    1.10731    0.43243   1.00
H2       0.37670    1.11598    0.42475   1.00
H2       0.12846    1.13928    0.46817   1.00
H2       0.40541    1.15449    0.44254   1.00
H2       0.10137    1.15797    0.42892   1.00
H2       0.35045    1.20329    0.42336   1.00
H2       0.15902    1.20455    0.41232   1.00
H2       0.32275    1.16378    0.40585   1.00
H2       0.18506    1.18498    0.45200   1.00
H2       0.30255    1.19573    0.44094   1.00
H2       0.20615    1.18494    0.40493   1.00
H2       0.36958    1.16495    0.52341   1.00
H2       0.13617    1.11090    0.36179   1.00
H2       0.37975    1.20292    0.49021   1.00
H2       0.12851    1.16178    0.36165   1.00
H2       0.33261    1.19838    0.51030   1.00
H2       0.17498    1.14283    0.35037   1.00
C4       0.73025    0.99770    0.50420   1.00
C4       0.77191    0.99834    0.50561   1.00
C3       0.70897    0.96527    0.48920   1.00
C3       0.79504    0.96516    0.49599   1.00
C3       0.70854    1.03050    0.51815   1.00
C3       0.79170    1.03325    0.51707   1.00
C2       0.64595    0.99555    0.50310   1.00
C2       0.85622    1.00019    0.50659   1.00
C3       0.66811    0.96408    0.48882   1.00
C3       0.83591    0.96603    0.49625   1.00
C3       0.66696    1.02803    0.51745   1.00
C3       0.83336    1.03300    0.51675   1.00
H1       0.72237    0.94146    0.47763   1.00
H1       0.78306    0.93898    0.48880   1.00
C5       0.72835    1.06464    0.53207   1.00
C5       0.76998    1.06709    0.52865   1.00
H1       0.65451    0.93978    0.47776   1.00
H1       0.85091    0.94116    0.48886   1.00
H1       0.65052    1.05066    0.52736   1.00
H1       0.84848    1.05734    0.52446   1.00
C6       0.70515    1.09738    0.55056   1.00
C6       0.79119    1.10502    0.53668   1.00
H2       0.68345    1.08493    0.57019   1.00
H2       0.81310    1.10963    0.51411   1.00
H2       0.72286    1.11444    0.57059   1.00
H2       0.77228    1.13014    0.53248   1.00
C6       0.68606    1.12549    0.51993   1.00
C6       0.80942    1.10696    0.57859   1.00
H2       0.67292    1.10835    0.49645   1.00
H2       0.82383    1.07929    0.58525   1.00
C6       0.65459    1.15495    0.53504   1.00
C6       0.83911    1.14061    0.58715   1.00
H2       0.70949    1.14210    0.50609   1.00
H2       0.78546    1.10920    0.59950   1.00
C6       0.61735    1.13368    0.54954   1.00
C6       0.87708    1.13599    0.56294   1.00
C6       0.67074    1.18104    0.56824   1.00
C6       0.82107    1.18125    0.57899   1.00
C6       0.64245    1.18193    0.50072   1.00
C6       0.85054    1.13894    0.63097   1.00
H2       0.60558    1.11451    0.52696   1.00
H2       0.89020    1.10731    0.56757   1.00
H2       0.62330    1.11598    0.57525   1.00
H2       0.87154    1.13928    0.53183   1.00
H2       0.59459    1.15449    0.55746   1.00
H2       0.89863    1.15797    0.57108   1.00
H2       0.64955    1.20329    0.57664   1.00
H2       0.84098    1.20455    0.58768   1.00
H2       0.67725    1.16378    0.59415   1.00
H2       0.81494    1.18498    0.54800   1.00
H2       0.69745    1.19573    0.55906   1.00
H2       0.79385    1.18494    0.59507   1.00
H2       0.63042    1.16495    0.47659   1.00
H2       0.86383    1.11090    0.63821   1.00
H2       0.62025    1.20292    0.50979   1.00
H2       0.87149    1.16178    0.63835   1.00
H2       0.66739    1.19838    0.48970   1.00
H2       0.82502    1.14283    0.64963   1.00
C4       0.49580    0.76975    0.49770   1.00
C4       0.49439    0.72809    0.49834   1.00
C3       0.51080    0.79103    0.46527   1.00
C3       0.50401    0.70496    0.46516   1.00
C3       0.48185    0.79146    0.53050   1.00
C3       0.48293    0.70830    0.53325   1.00
C2       0.49690    0.85405    0.49555   1.00
C2       0.49341    0.64378    0.50019   1.00
C3       0.51118    0.83189    0.46408   1.00
C3       0.50375    0.66409    0.46603   1.00
C3       0.48255    0.83304    0.52803   1.00
C3       0.48325    0.66664    0.53300   1.00
H1       0.52237    0.77763    0.44146   1.00
H1       0.51120    0.71694    0.43898   1.00
C5       0.46793    0.77165    0.56464   1.00
C5       0.47135    0.73002    0.56709   1.00
H1       0.52224    0.84549    0.43978   1.00
H1       0.51114    0.64909    0.44116   1.00
H1       0.47264    0.84948    0.55066   1.00
H1       0.47554    0.65152    0.55734   1.00
C6       0.44944    0.79485    0.59738   1.00
C6       0.46332    0.70881    0.60502   1.00
H2       0.42981    0.81655    0.58493   1.00
H2       0.48589    0.68690    0.60963   1.00
H2       0.42941    0.77714    0.61444   1.00
H2       0.46752    0.72772    0.63014   1.00
C6       0.48007    0.81394    0.62549   1.00
C6       0.42141    0.69058    0.60696   1.00
H2       0.50355    0.82708    0.60835   1.00
H2       0.41475    0.67617    0.57929   1.00
C6       0.46496    0.84541    0.65495   1.00
C6       0.41285    0.66089    0.64061   1.00
H2       0.49391    0.79051    0.64210   1.00
H2       0.40050    0.71454    0.60920   1.00
C6       0.45046    0.88265    0.63368   1.00
C6       0.43706    0.62292    0.63599   1.00
C6       0.43176    0.82926    0.68104   1.00
C6       0.42101    0.67893    0.68125   1.00
C6       0.49928    0.85755    0.68193   1.00
C6       0.36903    0.64946    0.63894   1.00
H2       0.47304    0.89442    0.61451   1.00
H2       0.43243    0.60980    0.60731   1.00
H2       0.42475    0.87670    0.61598   1.00
H2       0.46817    0.62846    0.63928   1.00
H2       0.44254    0.90541    0.65449   1.00
H2       0.42892    0.60137    0.65797   1.00
H2       0.42336    0.85045    0.70329   1.00
H2       0.41232    0.65902    0.70455   1.00
H2       0.40585    0.82275    0.66378   1.00
H2       0.45200    0.68506    0.68498   1.00
H2       0.44094    0.80255    0.69573   1.00
H2       0.40493    0.70615    0.68494   1.00
H2       0.52341    0.86958    0.66495   1.00
H2       0.36179    0.63617    0.61090   1.00
H2       0.49021    0.87975    0.70292   1.00
H2       0.36165    0.62851    0.66178   1.00
H2       0.51030    0.83261    0.69838   1.00
H2       0.35037    0.67498    0.64283   1.00
C4       0.49770    0.99580    0.26975   1.00
C4       0.49834    0.99439    0.22809   1.00
C3       0.46527    1.01080    0.29103   1.00
C3       0.46516    1.00401    0.20496   1.00
C3       0.53050    0.98185    0.29146   1.00
C3       0.53325    0.98293    0.20830   1.00
C2       0.49555    0.99690    0.35405   1.00
C2       0.50019    0.99341    0.14378   1.00
C3       0.46408    1.01118    0.33189   1.00
C3       0.46603    1.00375    0.16409   1.00
C3       0.52803    0.98255    0.33304   1.00
C3       0.53300    0.98325    0.16664   1.00
H1       0.44146    1.02237    0.27763   1.00
H1       0.43898    1.01120    0.21694   1.00
C5       0.56464    0.96793    0.27165   1.00
C5       0.56709    0.97135    0.23002   1.00
H1       0.43978    1.02224    0.34549   1.00
H1       0.44116    1.01114    0.14909   1.00
H1       0.55066    0.97264    0.34948   1.00
H1       0.55734    0.97554    0.15152   1.00
C6       0.59738    0.94944    0.29485   1.00
C6       0.60502    0.96332    0.20881   1.00
H2       0.58493    0.92981    0.31655   1.00
H2       0.60963    0.98589    0.18690   1.00
H2       0.61444    0.92941    0.27714   1.00
H2       0.63014    0.96752    0.22772   1.00
C6       0.62549    0.98007    0.31394   1.00
C6       0.60696    0.92141    0.19058   1.00
H2       0.60835    1.00355    0.32708   1.00
H2       0.57929    0.91475    0.17617   1.00
C6       0.65495    0.96496    0.34541   1.00
C6       0.64061    0.91285    0.16089   1.00
H2       0.64210    0.99391    0.29051   1.00
H2       0.60920    0.90050    0.21454   1.00
C6       0.63368    0.95046    0.38265   1.00
C6       0.63599    0.93706    0.12292   1.00
C6       0.68104    0.93176    0.32926   1.00
C6       0.68125    0.92101    0.17893   1.00
C6       0.68193    0.99928    0.35755   1.00
C6       0.63894    0.86903    0.14946   1.00
H2       0.61451    0.97304    0.39442   1.00
H2       0.60731    0.93243    0.10980   1.00
H2       0.61598    0.92475    0.37670   1.00
H2       0.63928    0.96817    0.12846   1.00
H2       0.65449    0.94254    0.40541   1.00
H2       0.65797    0.92892    0.10137   1.00
H2       0.70329    0.92336    0.35045   1.00
H2       0.70455    0.91232    0.15902   1.00
H2       0.66378    0.90585    0.32275   1.00
H2       0.68498    0.95200    0.18506   1.00
H2       0.69573    0.94094    0.30255   1.00
H2       0.68494    0.90493    0.20615   1.00
H2       0.66495    1.02341    0.36958   1.00
H2       0.61090    0.86179    0.13617   1.00
H2       0.70292    0.99021    0.37975   1.00
H2       0.66178    0.86165    0.12851   1.00
H2       0.69838    1.01030    0.33261   1.00
H2       0.64283    0.85037    0.17498   1.00
C4       0.99770    0.50420    0.73025   1.00
C4       0.99834    0.50561    0.77191   1.00
C3       0.96527    0.48920    0.70897   1.00
C3       0.96516    0.49599    0.79504   1.00
C3       1.03050    0.51815    0.70854   1.00
C3       1.03325    0.51707    0.79170   1.00
C2       0.99555    0.50310    0.64595   1.00
C2       1.00019    0.50659    0.85622   1.00
C3       0.96408    0.48882    0.66811   1.00
C3       0.96603    0.49625    0.83591   1.00
C3       1.02803    0.51745    0.66696   1.00
C3       1.03300    0.51675    0.83336   1.00
H1       0.94146    0.47763    0.72237   1.00
H1       0.93898    0.48880    0.78306   1.00
C5       1.06464    0.53207    0.72835   1.00
C5       1.06709    0.52865    0.76998   1.00
H1       0.93978    0.47776    0.65451   1.00
H1       0.94116    0.48886    0.85091   1.00
H1       1.05066    0.52736    0.65052   1.00
H1       1.05734    0.52446    0.84848   1.00
C6       1.09738    0.55056    0.70515   1.00
C6       1.10502    0.53668    0.79119   1.00
H2       1.08493    0.57019    0.68345   1.00
H2       1.10963    0.51411    0.81310   1.00
H2       1.11444    0.57059    0.72286   1.00
H2       1.13014    0.53248    0.77228   1.00
C6       1.12549    0.51993    0.68606   1.00
C6       1.10696    0.57859    0.80942   1.00
H2       1.10835    0.49645    0.67292   1.00
H2       1.07929    0.58525    0.82383   1.00
C6       1.15495    0.53504    0.65459   1.00
C6       1.14061    0.58715    0.83911   1.00
H2       1.14210    0.50609    0.70949   1.00
H2       1.10920    0.59950    0.78546   1.00
C6       1.13368    0.54954    0.61735   1.00
C6       1.13599    0.56294    0.87708   1.00
C6       1.18104    0.56824    0.67074   1.00
C6       1.18125    0.57899    0.82107   1.00
C6       1.18193    0.50072    0.64245   1.00
C6       1.13894    0.63097    0.85054   1.00
H2       1.11451    0.52696    0.60558   1.00
H2       1.10731    0.56757    0.89020   1.00
H2       1.11598    0.57525    0.62330   1.00
H2       1.13928    0.53183    0.87154   1.00
H2       1.15449    0.55746    0.59459   1.00
H2       1.15797    0.57108    0.89863   1.00
H2       1.20329    0.57664    0.64955   1.00
H2       1.20455    0.58768    0.84098   1.00
H2       1.16378    0.59415    0.67725   1.00
H2       1.18498    0.54800    0.81494   1.00
H2       1.19573    0.55906    0.69745   1.00
H2       1.18494    0.59507    0.79385   1.00
H2       1.16495    0.47659    0.63042   1.00
H2       1.11090    0.63821    0.86383   1.00
H2       1.20292    0.50979    0.62025   1.00
H2       1.16178    0.63835    0.87149   1.00
H2       1.19838    0.48970    0.66739   1.00
H2       1.14283    0.64963    0.82502   1.00
C4       1.00420    0.73025    0.49770   1.00
C4       1.00561    0.77191    0.49834   1.00
C3       0.98920    0.70897    0.46527   1.00
C3       0.99599    0.79504    0.46516   1.00
C3       1.01815    0.70854    0.53050   1.00
C3       1.01707    0.79170    0.53325   1.00
C2       1.00310    0.64595    0.49555   1.00
C2       1.00659    0.85622    0.50019   1.00
C3       0.98882    0.66811    0.46408   1.00
C3       0.99625    0.83591    0.46603   1.00
C3       1.01745    0.66696    0.52803   1.00
C3       1.01675    0.83336    0.53300   1.00
H1       0.97763    0.72237    0.44146   1.00
H1       0.98880    0.78306    0.43898   1.00
C5       1.03207    0.72835    0.56464   1.00
C5       1.02865    0.76998    0.56709   1.00
H1       0.97776    0.65451    0.43978   1.00
H1       0.98886    0.85091    0.44116   1.00
H1       1.02736    0.65052    0.55066   1.00
H1       1.02446    0.84848    0.55734   1.00
C6       1.05056    0.70515    0.59738   1.00
C6       1.03668    0.79119    0.60502   1.00
H2       1.07019    0.68345    0.58493   1.00
H2       1.01411    0.81310    0.60963   1.00
H2       1.07059    0.72286    0.61444   1.00
H2       1.03248    0.77228    0.63014   1.00
C6       1.01993    0.68606    0.62549   1.00
C6       1.07859    0.80942    0.60696   1.00
H2       0.99645    0.67292    0.60835   1.00
H2       1.08525    0.82383    0.57929   1.00
C6       1.03504    0.65459    0.65495   1.00
C6       1.08715    0.83911    0.64061   1.00
H2       1.00609    0.70949    0.64210   1.00
H2       1.09950    0.78546    0.60920   1.00
C6       1.04954    0.61735    0.63368   1.00
C6       1.06294    0.87708    0.63599   1.00
C6       1.06824    0.67074    0.68104   1.00
C6       1.07899    0.82107    0.68125   1.00
C6       1.00072    0.64245    0.68193   1.00
C6       1.13097    0.85054    0.63894   1.00
H2       1.02696    0.60558    0.61451   1.00
H2       1.06757    0.89020    0.60731   1.00
H2       1.07525    0.62330    0.61598   1.00
H2       1.03183    0.87154    0.63928   1.00
H2       1.05746    0.59459    0.65449   1.00
H2       1.07108    0.89863    0.65797   1.00
H2       1.07664    0.64955    0.70329   1.00
H2       1.08768    0.84098    0.70455   1.00
H2       1.09415    0.67725    0.66378   1.00
H2       1.04800    0.81494    0.68498   1.00
H2       1.05906    0.69745    0.69573   1.00
H2       1.09507    0.79385    0.68494   1.00
H2       0.97659    0.63042    0.66495   1.00
H2       1.13821    0.86383    0.61090   1.00
H2       1.00979    0.62025    0.70292   1.00
H2       1.13835    0.87149    0.66178   1.00
H2       0.98970    0.66739    0.69838   1.00
H2       1.14963    0.82502    0.64283   1.00
C4       0.76975    0.49770    0.49580   1.00
C4       0.72809    0.49834    0.49439   1.00
C3       0.79103    0.46527    0.51080   1.00
C3       0.70496    0.46516    0.50401   1.00
C3       0.79146    0.53050    0.48185   1.00
C3       0.70830    0.53325    0.48293   1.00
C2       0.85405    0.49555    0.49690   1.00
C2       0.64378    0.50019    0.49341   1.00
C3       0.83189    0.46408    0.51118   1.00
C3       0.66409    0.46603    0.50375   1.00
C3       0.83304    0.52803    0.48255   1.00
C3       0.66664    0.53300    0.48325   1.00
H1       0.77763    0.44146    0.52237   1.00
H1       0.71694    0.43898    0.51120   1.00
C5       0.77165    0.56464    0.46793   1.00
C5       0.73002    0.56709    0.47135   1.00
H1       0.84549    0.43978    0.52224   1.00
H1       0.64909    0.44116    0.51114   1.00
H1       0.84948    0.55066    0.47264   1.00
H1       0.65152    0.55734    0.47554   1.00
C6       0.79485    0.59738    0.44944   1.00
C6       0.70881    0.60502    0.46332   1.00
H2       0.81655    0.58493    0.42981   1.00
H2       0.68690    0.60963    0.48589   1.00
H2       0.77714    0.61444    0.42941   1.00
H2       0.72772    0.63014    0.46752   1.00
C6       0.81394    0.62549    0.48007   1.00
C6       0.69058    0.60696    0.42141   1.00
H2       0.82708    0.60835    0.50355   1.00
H2       0.67617    0.57929    0.41475   1.00
C6       0.84541    0.65495    0.46496   1.00
C6       0.66089    0.64061    0.41285   1.00
H2       0.79051    0.64210    0.49391   1.00
H2       0.71454    0.60920    0.40050   1.00
C6       0.88265    0.63368    0.45046   1.00
C6       0.62292    0.63599    0.43706   1.00
C6       0.82926    0.68104    0.43176   1.00
C6       0.67893    0.68125    0.42101   1.00
C6       0.85755    0.68193    0.49928   1.00
C6       0.64946    0.63894    0.36903   1.00
H2       0.89442    0.61451    0.47304   1.00
H2       0.60980    0.60731    0.43243   1.00
H2       0.87670    0.61598    0.42475   1.00
H2       0.62846    0.63928    0.46817   1.00
H2       0.90541    0.65449    0.44254   1.00
H2       0.60137    0.65797    0.42892   1.00
H2       0.85045    0.70329    0.42336   1.00
H2       0.65902    0.70455    0.41232   1.00
H2       0.82275    0.66378    0.40585   1.00
H2       0.68506    0.68498    0.45200   1.00
H2       0.80255    0.69573    0.44094   1.00
H2       0.70615    0.68494    0.40493   1.00
H2       0.86958    0.66495    0.52341   1.00
H2       0.63617    0.61090    0.36179   1.00
H2       0.87975    0.70292    0.49021   1.00
H2       0.62851    0.66178    0.36165   1.00
H2       0.83261    0.69838    0.51030   1.00
H2       0.67498    0.64283    0.35037   1.00
C4       1.23025    0.49770    0.50420   1.00
C4       1.27191    0.49834    0.50561   1.00
C3       1.20897    0.46527    0.48920   1.00
C3       1.29504    0.46516    0.49599   1.00
C3       1.20854    0.53050    0.51815   1.00
C3       1.29170    0.53325    0.51707   1.00
C2       1.14595    0.49555    0.50310   1.00
C2       1.35622    0.50019    0.50659   1.00
C3       1.16811    0.46408    0.48882   1.00
C3       1.33591    0.46603    0.49625   1.00
C3       1.16696    0.52803    0.51745   1.00
C3       1.33336    0.53300    0.51675   1.00
H1       1.22237    0.44146    0.47763   1.00
H1       1.28306    0.43898    0.48880   1.00
C5       1.22835    0.56464    0.53207   1.00
C5       1.26998    0.56709    0.52865   1.00
H1       1.15451    0.43978    0.47776   1.00
H1       1.35091    0.44116    0.48886   1.00
H1       1.15052    0.55066    0.52736   1.00
H1       1.34848    0.55734    0.52446   1.00
C6       1.20515    0.59738    0.55056   1.00
C6       1.29119    0.60502    0.53668   1.00
H2       1.18345    0.58493    0.57019   1.00
H2       1.31310    0.60963    0.51411   1.00
H2       1.22286    0.61444    0.57059   1.00
H2       1.27228    0.63014    0.53248   1.00
C6       1.18606    0.62549    0.51993   1.00
C6       1.30942    0.60696    0.57859   1.00
H2       1.17292    0.60835    0.49645   1.00
H2       1.32383    0.57929    0.58525   1.00
C6       1.15459    0.65495    0.53504   1.00
C6       1.33911    0.64061    0.58715   1.00
H2       1.20949    0.64210    0.50609   1.00
H2       1.28546    0.60920    0.59950   1.00
C6       1.11735    0.63368    0.54954   1.00
C6       1.37708    0.63599    0.56294   1.00
C6       1.17074    0.68104    0.56824   1.00
C6       1.32107    0.68125    0.57899   1.00
C6       1.14245    0.68193    0.50072   1.00
C6       1.35054    0.63894    0.63097   1.00
H2       1.10558    0.61451    0.52696   1.00
H2       1.39020    0.60731    0.56757   1.00
H2       1.12330    0.61598    0.57525   1.00
H2       1.37154    0.63928    0.53183   1.00
H2       1.09459    0.65449    0.55746   1.00
H2       1.39863    0.65797    0.57108   1.00
H2       1.14955    0.70329    0.57664   1.00
H2       1.34098    0.70455    0.58768   1.00
H2       1.17725    0.66378    0.59415   1.00
H2       1.31494    0.68498    0.54800   1.00
H2       1.19745    0.69573    0.55906   1.00
H2       1.29385    0.68494    0.59507   1.00
H2       1.13042    0.66495    0.47659   1.00
H2       1.36383    0.61090    0.63821   1.00
H2       1.12025    0.70292    0.50979   1.00
H2       1.37149    0.66178    0.63835   1.00
H2       1.16739    0.69838    0.48970   1.00
H2       1.32502    0.64283    0.64963   1.00
C4       0.99580    0.26975    0.49770   1.00
C4       0.99439    0.22809    0.49834   1.00
C3       1.01080    0.29103    0.46527   1.00
C3       1.00401    0.20496    0.46516   1.00
C3       0.98185    0.29146    0.53050   1.00
C3       0.98293    0.20830    0.53325   1.00
C2       0.99690    0.35405    0.49555   1.00
C2       0.99341    0.14378    0.50019   1.00
C3       1.01118    0.33189    0.46408   1.00
C3       1.00375    0.16409    0.46603   1.00
C3       0.98255    0.33304    0.52803   1.00
C3       0.98325    0.16664    0.53300   1.00
H1       1.02237    0.27763    0.44146   1.00
H1       1.01120    0.21694    0.43898   1.00
C5       0.96793    0.27165    0.56464   1.00
C5       0.97135    0.23002    0.56709   1.00
H1       1.02224    0.34549    0.43978   1.00
H1       1.01114    0.14909    0.44116   1.00
H1       0.97264    0.34948    0.55066   1.00
H1       0.97554    0.15152    0.55734   1.00
C6       0.94944    0.29485    0.59738   1.00
C6       0.96332    0.20881    0.60502   1.00
H2       0.92981    0.31655    0.58493   1.00
H2       0.98589    0.18690    0.60963   1.00
H2       0.92941    0.27714    0.61444   1.00
H2       0.96752    0.22772    0.63014   1.00
C6       0.98007    0.31394    0.62549   1.00
C6       0.92141    0.19058    0.60696   1.00
H2       1.00355    0.32708    0.60835   1.00
H2       0.91475    0.17617    0.57929   1.00
C6       0.96496    0.34541    0.65495   1.00
C6       0.91285    0.16089    0.64061   1.00
H2       0.99391    0.29051    0.64210   1.00
H2       0.90050    0.21454    0.60920   1.00
C6       0.95046    0.38265    0.63368   1.00
C6       0.93706    0.12292    0.63599   1.00
C6       0.93176    0.32926    0.68104   1.00
C6       0.92101    0.17893    0.68125   1.00
C6       0.99928    0.35755    0.68193   1.00
C6       0.86903    0.14946    0.63894   1.00
H2       0.97304    0.39442    0.61451   1.00
H2       0.93243    0.10980    0.60731   1.00
H2       0.92475    0.37670    0.61598   1.00
H2       0.96817    0.12846    0.63928   1.00
H2       0.94254    0.40541    0.65449   1.00
H2       0.92892    0.10137    0.65797   1.00
H2       0.92336    0.35045    0.70329   1.00
H2       0.91232    0.15902    0.70455   1.00
H2       0.90585    0.32275    0.66378   1.00
H2       0.95200    0.18506    0.68498   1.00
H2       0.94094    0.30255    0.69573   1.00
H2       0.90493    0.20615    0.68494   1.00
H2       1.02341    0.36958    0.66495   1.00
H2       0.86179    0.13617    0.61090   1.00
H2       0.99021    0.37975    0.70292   1.00
H2       0.86165    0.12851    0.66178   1.00
H2       1.01030    0.33261    0.69838   1.00
H2       0.85037    0.17498    0.64283   1.00
C4       0.99770    0.49580    0.26975   1.00
C4       0.99834    0.49439    0.22809   1.00
C3       0.96527    0.51080    0.29103   1.00
C3       0.96516    0.50401    0.20496   1.00
C3       1.03050    0.48185    0.29146   1.00
C3       1.03325    0.48293    0.20830   1.00
C2       0.99555    0.49690    0.35405   1.00
C2       1.00019    0.49341    0.14378   1.00
C3       0.96408    0.51118    0.33189   1.00
C3       0.96603    0.50375    0.16409   1.00
C3       1.02803    0.48255    0.33304   1.00
C3       1.03300    0.48325    0.16664   1.00
H1       0.94146    0.52237    0.27763   1.00
H1       0.93898    0.51120    0.21694   1.00
C5       1.06464    0.46793    0.27165   1.00
C5       1.06709    0.47135    0.23002   1.00
H1       0.93978    0.52224    0.34549   1.00
H1       0.94116    0.51114    0.14909   1.00
H1       1.05066    0.47264    0.34948   1.00
H1       1.05734    0.47554    0.15152   1.00
C6       1.09738    0.44944    0.29485   1.00
C6       1.10502    0.46332    0.20881   1.00
H2       1.08493    0.42981    0.31655   1.00
H2       1.10963    0.48589    0.18690   1.00
H2       1.11444    0.42941    0.27714   1.00
H2       1.13014    0.46752    0.22772   1.00
C6       1.12549    0.48007    0.31394   1.00
C6       1.10696    0.42141    0.19058   1.00
H2       1.10835    0.50355    0.32708   1.00
H2       1.07929    0.41475    0.17617   1.00
C6       1.15495    0.46496    0.34541   1.00
C6       1.14061    0.41285    0.16089   1.00
H2       1.14210    0.49391    0.29051   1.00
H2       1.10920    0.40050    0.21454   1.00
C6       1.13368    0.45046    0.38265   1.00
C6       1.13599    0.43706    0.12292   1.00
C6       1.18104    0.43176    0.32926   1.00
C6       1.18125    0.42101    0.17893   1.00
C6       1.18193    0.49928    0.35755   1.00
C6       1.13894    0.36903    0.14946   1.00
H2       1.11451    0.47304    0.39442   1.00
H2       1.10731    0.43243    0.10980   1.00
H2       1.11598    0.42475    0.37670   1.00
H2       1.13928    0.46817    0.12846   1.00
H2       1.15449    0.44254    0.40541   1.00
H2       1.15797    0.42892    0.10137   1.00
H2       1.20329    0.42336    0.35045   1.00
H2       1.20455    0.41232    0.15902   1.00
H2       1.16378    0.40585    0.32275   1.00
H2       1.18498    0.45200    0.18506   1.00
H2       1.19573    0.44094    0.30255   1.00
H2       1.18494    0.40493    0.20615   1.00
H2       1.16495    0.52341    0.36958   1.00
H2       1.11090    0.36179    0.13617   1.00
H2       1.20292    0.49021    0.37975   1.00
H2       1.16178    0.36165    0.12851   1.00
H2       1.19838    0.51030    0.33261   1.00
H2       1.14283    0.35037    0.17498   1.00
