data_IRMOF10_SG202_interpen_Ligand10lp_label_q.

_audit_creation_method             'generated by an auxiliary program of Tobunporous'

_symmetry_space_group_name_H-M     'P 1'
_symmetry_Int_Tables_number        1
_symmetry_cell_setting             triclinic

_cell_length_a                    34.2800
_cell_length_b                    34.2800
_cell_length_c                    34.2800
_cell_angle_alpha                 90.0000
_cell_angle_beta                  90.0000
_cell_angle_gamma                 90.0000

loop_
_atom_site_label
_atom_site_fract_x
_atom_site_fract_y
_atom_site_fract_z
_atom_site_occupancy
O1       0.75000    0.75000    0.75000   1.00
Zn1      0.71720    0.78280    0.78280   1.00
Zn1      0.78280    0.71720    0.78280   1.00
Zn1      0.78280    0.78280    0.71720   1.00
Zn1      0.71720    0.71720    0.71720   1.00
O2       0.72650    0.77350    0.83820   1.00
O2       0.72650    0.83820    0.77350   1.00
O2       0.66180    0.77350    0.77350   1.00
O2       0.77350    0.72650    0.83820   1.00
O2       0.83820    0.72650    0.77350   1.00
O2       0.77350    0.66180    0.77350   1.00
O2       0.77350    0.83820    0.72650   1.00
O2       0.83820    0.77350    0.72650   1.00
O2       0.77350    0.77350    0.66180   1.00
O2       0.66180    0.72650    0.72650   1.00
O2       0.72650    0.66180    0.72650   1.00
O2       0.72650    0.72650    0.66180   1.00
C1       0.75000    0.75000    0.85520   1.00
C1       0.75000    0.85520    0.75000   1.00
C1       0.64480    0.75000    0.75000   1.00
C1       0.85520    0.75000    0.75000   1.00
C1       0.75000    0.64480    0.75000   1.00
C1       0.75000    0.75000    0.64480   1.00
O1       0.25000    0.25000    0.75000   1.00
Zn1      0.21720    0.28280    0.78280   1.00
Zn1      0.28280    0.21720    0.78280   1.00
Zn1      0.28280    0.28280    0.71720   1.00
Zn1      0.21720    0.21720    0.71720   1.00
O2       0.22650    0.27350    0.83820   1.00
O2       0.22650    0.33820    0.77350   1.00
O2       0.16180    0.27350    0.77350   1.00
O2       0.27350    0.22650    0.83820   1.00
O2       0.33820    0.22650    0.77350   1.00
O2       0.27350    0.16180    0.77350   1.00
O2       0.27350    0.33820    0.72650   1.00
O2       0.33820    0.27350    0.72650   1.00
O2       0.27350    0.27350    0.66180   1.00
O2       0.16180    0.22650    0.72650   1.00
O2       0.22650    0.16180    0.72650   1.00
O2       0.22650    0.22650    0.66180   1.00
C1       0.25000    0.25000    0.85520   1.00
C1       0.25000    0.35520    0.75000   1.00
C1       0.14480    0.25000    0.75000   1.00
C1       0.35520    0.25000    0.75000   1.00
C1       0.25000    0.14480    0.75000   1.00
C1       0.25000    0.25000    0.64480   1.00
O1       0.25000    0.75000    0.25000   1.00
Zn1      0.21720    0.78280    0.28280   1.00
Zn1      0.28280    0.71720    0.28280   1.00
Zn1      0.28280    0.78280    0.21720   1.00
Zn1      0.21720    0.71720    0.21720   1.00
O2       0.22650    0.77350    0.33820   1.00
O2       0.22650    0.83820    0.27350   1.00
O2       0.16180    0.77350    0.27350   1.00
O2       0.27350    0.72650    0.33820   1.00
O2       0.33820    0.72650    0.27350   1.00
O2       0.27350    0.66180    0.27350   1.00
O2       0.27350    0.83820    0.22650   1.00
O2       0.33820    0.77350    0.22650   1.00
O2       0.27350    0.77350    0.16180   1.00
O2       0.16180    0.72650    0.22650   1.00
O2       0.22650    0.66180    0.22650   1.00
O2       0.22650    0.72650    0.16180   1.00
C1       0.25000    0.75000    0.35520   1.00
C1       0.25000    0.85520    0.25000   1.00
C1       0.14480    0.75000    0.25000   1.00
C1       0.35520    0.75000    0.25000   1.00
C1       0.25000    0.64480    0.25000   1.00
C1       0.25000    0.75000    0.14480   1.00
O1       0.75000    0.25000    0.25000   1.00
Zn1      0.71720    0.28280    0.28280   1.00
Zn1      0.78280    0.21720    0.28280   1.00
Zn1      0.78280    0.28280    0.21720   1.00
Zn1      0.71720    0.21720    0.21720   1.00
O2       0.72650    0.27350    0.33820   1.00
O2       0.72650    0.33820    0.27350   1.00
O2       0.66180    0.27350    0.27350   1.00
O2       0.77350    0.22650    0.33820   1.00
O2       0.83820    0.22650    0.27350   1.00
O2       0.77350    0.16180    0.27350   1.00
O2       0.77350    0.33820    0.22650   1.00
O2       0.83820    0.27350    0.22650   1.00
O2       0.77350    0.27350    0.16180   1.00
O2       0.66180    0.22650    0.22650   1.00
O2       0.72650    0.16180    0.22650   1.00
O2       0.72650    0.22650    0.16180   1.00
C1       0.75000    0.25000    0.35520   1.00
C1       0.75000    0.35520    0.25000   1.00
C1       0.64480    0.25000    0.25000   1.00
C1       0.85520    0.25000    0.25000   1.00
C1       0.75000    0.14480    0.25000   1.00
C1       0.75000    0.25000    0.14480   1.00
O1       0.25000    0.25000    0.25000   1.00
Zn1      0.28280    0.21720    0.21720   1.00
Zn1      0.21720    0.28280    0.21720   1.00
Zn1      0.21720    0.21720    0.28280   1.00
Zn1      0.28280    0.28280    0.28280   1.00
O2       0.27350    0.22650    0.16180   1.00
O2       0.27350    0.16180    0.22650   1.00
O2       0.33820    0.22650    0.22650   1.00
O2       0.22650    0.27350    0.16180   1.00
O2       0.16180    0.27350    0.22650   1.00
O2       0.22650    0.33820    0.22650   1.00
O2       0.22650    0.16180    0.27350   1.00
O2       0.16180    0.22650    0.27350   1.00
O2       0.22650    0.22650    0.33820   1.00
O2       0.33820    0.27350    0.27350   1.00
O2       0.27350    0.33820    0.27350   1.00
O2       0.27350    0.27350    0.33820   1.00
C1       0.25000    0.25000    0.14480   1.00
C1       0.25000    0.14480    0.25000   1.00
C1       0.35520    0.25000    0.25000   1.00
C1       0.14480    0.25000    0.25000   1.00
C1       0.25000    0.35520    0.25000   1.00
C1       0.25000    0.25000    0.35520   1.00
O1       0.75000    0.75000    0.25000   1.00
Zn1      0.78280    0.71720    0.21720   1.00
Zn1      0.71720    0.78280    0.21720   1.00
Zn1      0.71720    0.71720    0.28280   1.00
Zn1      0.78280    0.78280    0.28280   1.00
O2       0.77350    0.72650    0.16180   1.00
O2       0.77350    0.66180    0.22650   1.00
O2       0.83820    0.72650    0.22650   1.00
O2       0.72650    0.77350    0.16180   1.00
O2       0.66180    0.77350    0.22650   1.00
O2       0.72650    0.83820    0.22650   1.00
O2       0.72650    0.66180    0.27350   1.00
O2       0.66180    0.72650    0.27350   1.00
O2       0.72650    0.72650    0.33820   1.00
O2       0.83820    0.77350    0.27350   1.00
O2       0.77350    0.83820    0.27350   1.00
O2       0.77350    0.77350    0.33820   1.00
C1       0.75000    0.75000    0.14480   1.00
C1       0.75000    0.64480    0.25000   1.00
C1       0.85520    0.75000    0.25000   1.00
C1       0.64480    0.75000    0.25000   1.00
C1       0.75000    0.85520    0.25000   1.00
C1       0.75000    0.75000    0.35520   1.00
O1       0.75000    0.25000    0.75000   1.00
Zn1      0.78280    0.21720    0.71720   1.00
Zn1      0.71720    0.28280    0.71720   1.00
Zn1      0.71720    0.21720    0.78280   1.00
Zn1      0.78280    0.28280    0.78280   1.00
O2       0.77350    0.22650    0.66180   1.00
O2       0.77350    0.16180    0.72650   1.00
O2       0.83820    0.22650    0.72650   1.00
O2       0.72650    0.27350    0.66180   1.00
O2       0.66180    0.27350    0.72650   1.00
O2       0.72650    0.33820    0.72650   1.00
O2       0.72650    0.16180    0.77350   1.00
O2       0.66180    0.22650    0.77350   1.00
O2       0.72650    0.22650    0.83820   1.00
O2       0.83820    0.27350    0.77350   1.00
O2       0.77350    0.33820    0.77350   1.00
O2       0.77350    0.27350    0.83820   1.00
C1       0.75000    0.25000    0.64480   1.00
C1       0.75000    0.14480    0.75000   1.00
C1       0.85520    0.25000    0.75000   1.00
C1       0.64480    0.25000    0.75000   1.00
C1       0.75000    0.35520    0.75000   1.00
C1       0.75000    0.25000    0.85520   1.00
O1       0.25000    0.75000    0.75000   1.00
Zn1      0.28280    0.71720    0.71720   1.00
Zn1      0.21720    0.78280    0.71720   1.00
Zn1      0.21720    0.71720    0.78280   1.00
Zn1      0.28280    0.78280    0.78280   1.00
O2       0.27350    0.72650    0.66180   1.00
O2       0.27350    0.66180    0.72650   1.00
O2       0.33820    0.72650    0.72650   1.00
O2       0.22650    0.77350    0.66180   1.00
O2       0.16180    0.77350    0.72650   1.00
O2       0.22650    0.83820    0.72650   1.00
O2       0.22650    0.66180    0.77350   1.00
O2       0.16180    0.72650    0.77350   1.00
O2       0.22650    0.72650    0.83820   1.00
O2       0.33820    0.77350    0.77350   1.00
O2       0.27350    0.83820    0.77350   1.00
O2       0.27350    0.77350    0.83820   1.00
C1       0.25000    0.75000    0.64480   1.00
C1       0.25000    0.64480    0.75000   1.00
C1       0.35520    0.75000    0.75000   1.00
C1       0.14480    0.75000    0.75000   1.00
C1       0.25000    0.85520    0.75000   1.00
C1       0.25000    0.75000    0.85520   1.00
O1       1.00000    1.00000    1.00000   1.00
Zn1      0.96720    1.03280    1.03280   1.00
Zn1      1.03280    0.96720    1.03280   1.00
Zn1      1.03280    1.03280    0.96720   1.00
Zn1      0.96720    0.96720    0.96720   1.00
O2       0.97650    1.02350    1.08820   1.00
O2       0.97650    1.08820    1.02350   1.00
O2       0.91180    1.02350    1.02350   1.00
O2       1.02350    0.97650    1.08820   1.00
O2       1.08820    0.97650    1.02350   1.00
O2       1.02350    0.91180    1.02350   1.00
O2       1.02350    1.08820    0.97650   1.00
O2       1.08820    1.02350    0.97650   1.00
O2       1.02350    1.02350    0.91180   1.00
O2       0.91180    0.97650    0.97650   1.00
O2       0.97650    0.91180    0.97650   1.00
O2       0.97650    0.97650    0.91180   1.00
C1       1.00000    1.00000    1.10520   1.00
C1       1.00000    1.10520    1.00000   1.00
C1       0.89480    1.00000    1.00000   1.00
C1       1.10520    1.00000    1.00000   1.00
C1       1.00000    0.89480    1.00000   1.00
C1       1.00000    1.00000    0.89480   1.00
O1       0.50000    0.50000    1.00000   1.00
Zn1      0.46720    0.53280    1.03280   1.00
Zn1      0.53280    0.46720    1.03280   1.00
Zn1      0.53280    0.53280    0.96720   1.00
Zn1      0.46720    0.46720    0.96720   1.00
O2       0.47650    0.52350    1.08820   1.00
O2       0.47650    0.58820    1.02350   1.00
O2       0.41180    0.52350    1.02350   1.00
O2       0.52350    0.47650    1.08820   1.00
O2       0.58820    0.47650    1.02350   1.00
O2       0.52350    0.41180    1.02350   1.00
O2       0.52350    0.58820    0.97650   1.00
O2       0.58820    0.52350    0.97650   1.00
O2       0.52350    0.52350    0.91180   1.00
O2       0.41180    0.47650    0.97650   1.00
O2       0.47650    0.41180    0.97650   1.00
O2       0.47650    0.47650    0.91180   1.00
C1       0.50000    0.50000    1.10520   1.00
C1       0.50000    0.60520    1.00000   1.00
C1       0.39480    0.50000    1.00000   1.00
C1       0.60520    0.50000    1.00000   1.00
C1       0.50000    0.39480    1.00000   1.00
C1       0.50000    0.50000    0.89480   1.00
O1       0.50000    1.00000    0.50000   1.00
Zn1      0.46720    1.03280    0.53280   1.00
Zn1      0.53280    0.96720    0.53280   1.00
Zn1      0.53280    1.03280    0.46720   1.00
Zn1      0.46720    0.96720    0.46720   1.00
O2       0.47650    1.02350    0.58820   1.00
O2       0.47650    1.08820    0.52350   1.00
O2       0.41180    1.02350    0.52350   1.00
O2       0.52350    0.97650    0.58820   1.00
O2       0.58820    0.97650    0.52350   1.00
O2       0.52350    0.91180    0.52350   1.00
O2       0.52350    1.08820    0.47650   1.00
O2       0.58820    1.02350    0.47650   1.00
O2       0.52350    1.02350    0.41180   1.00
O2       0.41180    0.97650    0.47650   1.00
O2       0.47650    0.91180    0.47650   1.00
O2       0.47650    0.97650    0.41180   1.00
C1       0.50000    1.00000    0.60520   1.00
C1       0.50000    1.10520    0.50000   1.00
C1       0.39480    1.00000    0.50000   1.00
C1       0.60520    1.00000    0.50000   1.00
C1       0.50000    0.89480    0.50000   1.00
C1       0.50000    1.00000    0.39480   1.00
O1       1.00000    0.50000    0.50000   1.00
Zn1      0.96720    0.53280    0.53280   1.00
Zn1      1.03280    0.46720    0.53280   1.00
Zn1      1.03280    0.53280    0.46720   1.00
Zn1      0.96720    0.46720    0.46720   1.00
O2       0.97650    0.52350    0.58820   1.00
O2       0.97650    0.58820    0.52350   1.00
O2       0.91180    0.52350    0.52350   1.00
O2       1.02350    0.47650    0.58820   1.00
O2       1.08820    0.47650    0.52350   1.00
O2       1.02350    0.41180    0.52350   1.00
O2       1.02350    0.58820    0.47650   1.00
O2       1.08820    0.52350    0.47650   1.00
O2       1.02350    0.52350    0.41180   1.00
O2       0.91180    0.47650    0.47650   1.00
O2       0.97650    0.41180    0.47650   1.00
O2       0.97650    0.47650    0.41180   1.00
C1       1.00000    0.50000    0.60520   1.00
C1       1.00000    0.60520    0.50000   1.00
C1       0.89480    0.50000    0.50000   1.00
C1       1.10520    0.50000    0.50000   1.00
C1       1.00000    0.39480    0.50000   1.00
C1       1.00000    0.50000    0.39480   1.00
O1       0.50000    0.50000    0.50000   1.00
Zn1      0.53280    0.46720    0.46720   1.00
Zn1      0.46720    0.53280    0.46720   1.00
Zn1      0.46720    0.46720    0.53280   1.00
Zn1      0.53280    0.53280    0.53280   1.00
O2       0.52350    0.47650    0.41180   1.00
O2       0.52350    0.41180    0.47650   1.00
O2       0.58820    0.47650    0.47650   1.00
O2       0.47650    0.52350    0.41180   1.00
O2       0.41180    0.52350    0.47650   1.00
O2       0.47650    0.58820    0.47650   1.00
O2       0.47650    0.41180    0.52350   1.00
O2       0.41180    0.47650    0.52350   1.00
O2       0.47650    0.47650    0.58820   1.00
O2       0.58820    0.52350    0.52350   1.00
O2       0.52350    0.58820    0.52350   1.00
O2       0.52350    0.52350    0.58820   1.00
C1       0.50000    0.50000    0.39480   1.00
C1       0.50000    0.39480    0.50000   1.00
C1       0.60520    0.50000    0.50000   1.00
C1       0.39480    0.50000    0.50000   1.00
C1       0.50000    0.60520    0.50000   1.00
C1       0.50000    0.50000    0.60520   1.00
O1       1.00000    1.00000    0.50000   1.00
Zn1      1.03280    0.96720    0.46720   1.00
Zn1      0.96720    1.03280    0.46720   1.00
Zn1      0.96720    0.96720    0.53280   1.00
Zn1      1.03280    1.03280    0.53280   1.00
O2       1.02350    0.97650    0.41180   1.00
O2       1.02350    0.91180    0.47650   1.00
O2       1.08820    0.97650    0.47650   1.00
O2       0.97650    1.02350    0.41180   1.00
O2       0.91180    1.02350    0.47650   1.00
O2       0.97650    1.08820    0.47650   1.00
O2       0.97650    0.91180    0.52350   1.00
O2       0.91180    0.97650    0.52350   1.00
O2       0.97650    0.97650    0.58820   1.00
O2       1.08820    1.02350    0.52350   1.00
O2       1.02350    1.08820    0.52350   1.00
O2       1.02350    1.02350    0.58820   1.00
C1       1.00000    1.00000    0.39480   1.00
C1       1.00000    0.89480    0.50000   1.00
C1       1.10520    1.00000    0.50000   1.00
C1       0.89480    1.00000    0.50000   1.00
C1       1.00000    1.10520    0.50000   1.00
C1       1.00000    1.00000    0.60520   1.00
O1       1.00000    0.50000    1.00000   1.00
Zn1      1.03280    0.46720    0.96720   1.00
Zn1      0.96720    0.53280    0.96720   1.00
Zn1      0.96720    0.46720    1.03280   1.00
Zn1      1.03280    0.53280    1.03280   1.00
O2       1.02350    0.47650    0.91180   1.00
O2       1.02350    0.41180    0.97650   1.00
O2       1.08820    0.47650    0.97650   1.00
O2       0.97650    0.52350    0.91180   1.00
O2       0.91180    0.52350    0.97650   1.00
O2       0.97650    0.58820    0.97650   1.00
O2       0.97650    0.41180    1.02350   1.00
O2       0.91180    0.47650    1.02350   1.00
O2       0.97650    0.47650    1.08820   1.00
O2       1.08820    0.52350    1.02350   1.00
O2       1.02350    0.58820    1.02350   1.00
O2       1.02350    0.52350    1.08820   1.00
C1       1.00000    0.50000    0.89480   1.00
C1       1.00000    0.39480    1.00000   1.00
C1       1.10520    0.50000    1.00000   1.00
C1       0.89480    0.50000    1.00000   1.00
C1       1.00000    0.60520    1.00000   1.00
C1       1.00000    0.50000    1.10520   1.00
O1       0.50000    1.00000    1.00000   1.00
Zn1      0.53280    0.96720    0.96720   1.00
Zn1      0.46720    1.03280    0.96720   1.00
Zn1      0.46720    0.96720    1.03280   1.00
Zn1      0.53280    1.03280    1.03280   1.00
O2       0.52350    0.97650    0.91180   1.00
O2       0.52350    0.91180    0.97650   1.00
O2       0.58820    0.97650    0.97650   1.00
O2       0.47650    1.02350    0.91180   1.00
O2       0.41180    1.02350    0.97650   1.00
O2       0.47650    1.08820    0.97650   1.00
O2       0.47650    0.91180    1.02350   1.00
O2       0.41180    0.97650    1.02350   1.00
O2       0.47650    0.97650    1.08820   1.00
O2       0.58820    1.02350    1.02350   1.00
O2       0.52350    1.08820    1.02350   1.00
O2       0.52350    1.02350    1.08820   1.00
C1       0.50000    1.00000    0.89480   1.00
C1       0.50000    0.89480    1.00000   1.00
C1       0.60520    1.00000    1.00000   1.00
C1       0.39480    1.00000    1.00000   1.00
C1       0.50000    1.10520    1.00000   1.00
C1       0.50000    1.00000    1.10520   1.00
C4       0.74994    0.74962    0.97915   1.00
C4       0.75006    0.75038    1.02085   1.00
C3       0.71552    0.74231    0.95751   1.00
C3       0.71927    0.76729    1.04252   1.00
C3       0.78425    0.75703    0.95738   1.00
C3       0.78078    0.73335    1.04259   1.00
C2       0.74984    0.75003    0.89482   1.00
C2       0.74984    0.75003    1.10518   1.00
C3a      0.71532    0.74247    0.91599   1.00
C3       0.71924    0.76710    1.08382   1.00
C3       0.78414    0.75722    0.91611   1.00
C3a      0.78086    0.73309    1.08403   1.00
H1       0.68866    0.73614    0.97294   1.00
H1       0.69516    0.78112    1.02750   1.00
C5       0.67813    0.73437    0.89410   1.00
H1       0.69514    0.78039    1.09933   1.00
H1       0.81095    0.76331    0.90056   1.00
C5       0.81447    0.71452    1.10535   1.00
H1       0.80451    0.71903    1.02747   1.00
H1       0.81132    0.76353    0.97230   1.00
H2       0.84152    0.73100    1.09837   1.00
H2       0.81028    0.71620    1.13747   1.00
N1       0.81868    0.67360    1.09395   1.00
C6       0.82757    0.66023    1.05810   1.00
C6       0.81473    0.64245    1.11757   1.00
C6       0.82915    0.62002    1.05873   1.00
C6       0.82098    0.60871    1.09656   1.00
H3       0.83267    0.67848    1.03281   1.00
H3       0.80759    0.64405    1.14831   1.00
H3       0.83560    0.60104    1.03436   1.00
H3       0.81975    0.57919    1.10758   1.00
H2       0.68403    0.73643    0.86228   1.00
H2       0.66736    0.70438    0.90001   1.00
N1       0.64802    0.76236    0.90523   1.00
C6       0.62876    0.78967    0.88078   1.00
C6       0.63157    0.76786    0.94285   1.00
C6       0.60219    0.81049    0.90277   1.00
C6       0.60392    0.79711    0.94091   1.00
H3       0.63429    0.79343    0.84992   1.00
H3       0.63989    0.75182    0.96876   1.00
H3       0.58331    0.83337    0.89205   1.00
H3       0.58667    0.80780    0.96505   1.00
C4       0.74962    0.97915    0.74994   1.00
C4       0.75038    1.02085    0.75006   1.00
C3       0.74231    0.95751    0.71552   1.00
C3       0.76729    1.04252    0.71927   1.00
C3       0.75703    0.95738    0.78425   1.00
C3       0.73335    1.04259    0.78078   1.00
C2       0.75003    0.89482    0.74984   1.00
C2       0.75003    1.10518    0.74984   1.00
C3a      0.74247    0.91599    0.71532   1.00
C3       0.76710    1.08382    0.71924   1.00
C3       0.75722    0.91611    0.78414   1.00
C3a      0.73309    1.08403    0.78086   1.00
H1       0.73614    0.97294    0.68866   1.00
H1       0.78112    1.02750    0.69516   1.00
C5       0.73437    0.89410    0.67813   1.00
H1       0.78039    1.09933    0.69514   1.00
H1       0.76331    0.90056    0.81095   1.00
C5       0.71452    1.10535    0.81447   1.00
H1       0.71903    1.02747    0.80451   1.00
H1       0.76353    0.97230    0.81132   1.00
H2       0.73100    1.09837    0.84152   1.00
H2       0.71620    1.13747    0.81028   1.00
N1       0.67360    1.09395    0.81868   1.00
C6       0.66023    1.05810    0.82757   1.00
C6       0.64245    1.11757    0.81473   1.00
C6       0.62002    1.05873    0.82915   1.00
C6       0.60871    1.09656    0.82098   1.00
H3       0.67848    1.03281    0.83267   1.00
H3       0.64405    1.14831    0.80759   1.00
H3       0.60104    1.03436    0.83560   1.00
H3       0.57919    1.10758    0.81975   1.00
H2       0.73643    0.86228    0.68403   1.00
H2       0.70438    0.90001    0.66736   1.00
N1       0.76236    0.90523    0.64802   1.00
C6       0.78967    0.88078    0.62876   1.00
C6       0.76786    0.94285    0.63157   1.00
C6       0.81049    0.90277    0.60219   1.00
C6       0.79711    0.94091    0.60392   1.00
H3       0.79343    0.84992    0.63429   1.00
H3       0.75182    0.96876    0.63989   1.00
H3       0.83337    0.89205    0.58331   1.00
H3       0.80780    0.96505    0.58667   1.00
C4       0.52085    0.74994    0.75038   1.00
C4       0.47915    0.75006    0.74962   1.00
C3       0.54249    0.71552    0.75769   1.00
C3       0.45748    0.71927    0.73271   1.00
C3       0.54262    0.78425    0.74297   1.00
C3       0.45741    0.78078    0.76665   1.00
C2       0.60518    0.74984    0.74997   1.00
C2       0.39482    0.74984    0.74997   1.00
C3a      0.58401    0.71532    0.75753   1.00
C3       0.41618    0.71924    0.73290   1.00
C3       0.58389    0.78414    0.74278   1.00
C3a      0.41597    0.78086    0.76691   1.00
H1       0.52706    0.68866    0.76386   1.00
H1       0.47250    0.69516    0.71888   1.00
C5       0.60590    0.67813    0.76563   1.00
H1       0.40067    0.69514    0.71961   1.00
H1       0.59944    0.81095    0.73669   1.00
C5       0.39465    0.81447    0.78548   1.00
H1       0.47253    0.80451    0.78097   1.00
H1       0.52770    0.81132    0.73647   1.00
H2       0.40163    0.84152    0.76900   1.00
H2       0.36253    0.81028    0.78380   1.00
N1       0.40605    0.81868    0.82640   1.00
C6       0.44190    0.82757    0.83977   1.00
C6       0.38243    0.81473    0.85755   1.00
C6       0.44127    0.82915    0.87998   1.00
C6       0.40344    0.82098    0.89129   1.00
H3       0.46719    0.83267    0.82152   1.00
H3       0.35169    0.80759    0.85595   1.00
H3       0.46564    0.83560    0.89896   1.00
H3       0.39242    0.81975    0.92081   1.00
H2       0.63772    0.68403    0.76357   1.00
H2       0.59999    0.66736    0.79562   1.00
N1       0.59477    0.64802    0.73764   1.00
C6       0.61922    0.62876    0.71033   1.00
C6       0.55715    0.63157    0.73214   1.00
C6       0.59723    0.60219    0.68951   1.00
C6       0.55909    0.60392    0.70289   1.00
H3       0.65008    0.63429    0.70657   1.00
H3       0.53124    0.63989    0.74818   1.00
H3       0.60795    0.58331    0.66663   1.00
H3       0.53495    0.58667    0.69220   1.00
C4       0.97915    0.74994    0.74962   1.00
C4       1.02085    0.75006    0.75038   1.00
C3       0.95751    0.71552    0.74231   1.00
C3       1.04252    0.71927    0.76729   1.00
C3       0.95738    0.78425    0.75703   1.00
C3       1.04259    0.78078    0.73335   1.00
C2       0.89482    0.74984    0.75003   1.00
C2       1.10518    0.74984    0.75003   1.00
C3a      0.91599    0.71532    0.74247   1.00
C3       1.08382    0.71924    0.76710   1.00
C3       0.91611    0.78414    0.75722   1.00
C3a      1.08403    0.78086    0.73309   1.00
H1       0.97294    0.68866    0.73614   1.00
H1       1.02750    0.69516    0.78112   1.00
C5       0.89410    0.67813    0.73437   1.00
H1       1.09933    0.69514    0.78039   1.00
H1       0.90056    0.81095    0.76331   1.00
C5       1.10535    0.81447    0.71452   1.00
H1       1.02747    0.80451    0.71903   1.00
H1       0.97230    0.81132    0.76353   1.00
H2       1.09837    0.84152    0.73100   1.00
H2       1.13747    0.81028    0.71620   1.00
N1       1.09395    0.81868    0.67360   1.00
C6       1.05810    0.82757    0.66023   1.00
C6       1.11757    0.81473    0.64245   1.00
C6       1.05873    0.82915    0.62002   1.00
C6       1.09656    0.82098    0.60871   1.00
H3       1.03281    0.83267    0.67848   1.00
H3       1.14831    0.80759    0.64405   1.00
H3       1.03436    0.83560    0.60104   1.00
H3       1.10758    0.81975    0.57919   1.00
H2       0.86228    0.68403    0.73643   1.00
H2       0.90001    0.66736    0.70438   1.00
N1       0.90523    0.64802    0.76236   1.00
C6       0.88078    0.62876    0.78967   1.00
C6       0.94285    0.63157    0.76786   1.00
C6       0.90277    0.60219    0.81049   1.00
C6       0.94091    0.60392    0.79711   1.00
H3       0.84992    0.63429    0.79343   1.00
H3       0.96876    0.63989    0.75182   1.00
H3       0.89205    0.58331    0.83337   1.00
H3       0.96505    0.58667    0.80780   1.00
C4       0.75038    0.52085    0.74994   1.00
C4       0.74962    0.47915    0.75006   1.00
C3       0.75769    0.54249    0.71552   1.00
C3       0.73271    0.45748    0.71927   1.00
C3       0.74297    0.54262    0.78425   1.00
C3       0.76665    0.45741    0.78078   1.00
C2       0.74997    0.60518    0.74984   1.00
C2       0.74997    0.39482    0.74984   1.00
C3a      0.75753    0.58401    0.71532   1.00
C3       0.73290    0.41618    0.71924   1.00
C3       0.74278    0.58389    0.78414   1.00
C3a      0.76691    0.41597    0.78086   1.00
H1       0.76386    0.52706    0.68866   1.00
H1       0.71888    0.47250    0.69516   1.00
C5       0.76563    0.60590    0.67813   1.00
H1       0.71961    0.40067    0.69514   1.00
H1       0.73669    0.59944    0.81095   1.00
C5       0.78548    0.39465    0.81447   1.00
H1       0.78097    0.47253    0.80451   1.00
H1       0.73647    0.52770    0.81132   1.00
H2       0.76900    0.40163    0.84152   1.00
H2       0.78380    0.36253    0.81028   1.00
N1       0.82640    0.40605    0.81868   1.00
C6       0.83977    0.44190    0.82757   1.00
C6       0.85755    0.38243    0.81473   1.00
C6       0.87998    0.44127    0.82915   1.00
C6       0.89129    0.40344    0.82098   1.00
H3       0.82152    0.46719    0.83267   1.00
H3       0.85595    0.35169    0.80759   1.00
H3       0.89896    0.46564    0.83560   1.00
H3       0.92081    0.39242    0.81975   1.00
H2       0.76357    0.63772    0.68403   1.00
H2       0.79562    0.59999    0.66736   1.00
N1       0.73764    0.59477    0.64802   1.00
C6       0.71033    0.61922    0.62876   1.00
C6       0.73214    0.55715    0.63157   1.00
C6       0.68951    0.59723    0.60219   1.00
C6       0.70289    0.55909    0.60392   1.00
H3       0.70657    0.65008    0.63429   1.00
H3       0.74818    0.53124    0.63989   1.00
H3       0.66663    0.60795    0.58331   1.00
H3       0.69220    0.53495    0.58667   1.00
C4       0.74994    0.75038    0.52085   1.00
C4       0.75006    0.74962    0.47915   1.00
C3       0.71552    0.75769    0.54249   1.00
C3       0.71927    0.73271    0.45748   1.00
C3       0.78425    0.74297    0.54262   1.00
C3       0.78078    0.76665    0.45741   1.00
C2       0.74984    0.74997    0.60518   1.00
C2       0.74984    0.74997    0.39482   1.00
C3a      0.71532    0.75753    0.58401   1.00
C3       0.71924    0.73290    0.41618   1.00
C3       0.78414    0.74278    0.58389   1.00
C3a      0.78086    0.76691    0.41597   1.00
H1       0.68866    0.76386    0.52706   1.00
H1       0.69516    0.71888    0.47250   1.00
C5       0.67813    0.76563    0.60590   1.00
H1       0.69514    0.71961    0.40067   1.00
H1       0.81095    0.73669    0.59944   1.00
C5       0.81447    0.78548    0.39465   1.00
H1       0.80451    0.78097    0.47253   1.00
H1       0.81132    0.73647    0.52770   1.00
H2       0.84152    0.76900    0.40163   1.00
H2       0.81028    0.78380    0.36253   1.00
N1       0.81868    0.82640    0.40605   1.00
C6       0.82757    0.83977    0.44190   1.00
C6       0.81473    0.85755    0.38243   1.00
C6       0.82915    0.87998    0.44127   1.00
C6       0.82098    0.89129    0.40344   1.00
H3       0.83267    0.82152    0.46719   1.00
H3       0.80759    0.85595    0.35169   1.00
H3       0.83560    0.89896    0.46564   1.00
H3       0.81975    0.92081    0.39242   1.00
H2       0.68403    0.76357    0.63772   1.00
H2       0.66736    0.79562    0.59999   1.00
N1       0.64802    0.73764    0.59477   1.00
C6       0.62876    0.71033    0.61922   1.00
C6       0.63157    0.73214    0.55715   1.00
C6       0.60219    0.68951    0.59723   1.00
C6       0.60392    0.70289    0.55909   1.00
H3       0.63429    0.70657    0.65008   1.00
H3       0.63989    0.74818    0.53124   1.00
H3       0.58331    0.66663    0.60795   1.00
H3       0.58667    0.69220    0.53495   1.00
C4       0.24994    0.24962    0.97915   1.00
C4       0.25006    0.25038    1.02085   1.00
C3       0.21552    0.24231    0.95751   1.00
C3       0.21927    0.26729    1.04252   1.00
C3       0.28425    0.25703    0.95738   1.00
C3       0.28078    0.23335    1.04259   1.00
C2       0.24984    0.25003    0.89482   1.00
C2       0.24984    0.25003    1.10518   1.00
C3a      0.21532    0.24247    0.91599   1.00
C3       0.21924    0.26710    1.08382   1.00
C3       0.28414    0.25722    0.91611   1.00
C3a      0.28086    0.23309    1.08403   1.00
H1       0.18866    0.23614    0.97294   1.00
H1       0.19516    0.28112    1.02750   1.00
C5       0.17813    0.23437    0.89410   1.00
H1       0.19514    0.28039    1.09933   1.00
H1       0.31095    0.26331    0.90056   1.00
C5       0.31447    0.21452    1.10535   1.00
H1       0.30451    0.21903    1.02747   1.00
H1       0.31132    0.26353    0.97230   1.00
H2       0.34152    0.23100    1.09837   1.00
H2       0.31028    0.21620    1.13747   1.00
N1       0.31868    0.17360    1.09395   1.00
C6       0.32757    0.16023    1.05810   1.00
C6       0.31473    0.14245    1.11757   1.00
C6       0.32915    0.12002    1.05873   1.00
C6       0.32098    0.10871    1.09656   1.00
H3       0.33267    0.17848    1.03281   1.00
H3       0.30759    0.14405    1.14831   1.00
H3       0.33560    0.10104    1.03436   1.00
H3       0.31975    0.07919    1.10758   1.00
H2       0.18403    0.23643    0.86228   1.00
H2       0.16736    0.20438    0.90001   1.00
N1       0.14802    0.26236    0.90523   1.00
C6       0.12876    0.28967    0.88078   1.00
C6       0.13157    0.26786    0.94285   1.00
C6       0.10219    0.31049    0.90277   1.00
C6       0.10392    0.29711    0.94091   1.00
H3       0.13429    0.29343    0.84992   1.00
H3       0.13989    0.25182    0.96876   1.00
H3       0.08331    0.33337    0.89205   1.00
H3       0.08667    0.30780    0.96505   1.00
C4       0.24962    0.47915    0.74994   1.00
C4       0.25038    0.52085    0.75006   1.00
C3       0.24231    0.45751    0.71552   1.00
C3       0.26729    0.54252    0.71927   1.00
C3       0.25703    0.45738    0.78425   1.00
C3       0.23335    0.54259    0.78078   1.00
C2       0.25003    0.39482    0.74984   1.00
C2       0.25003    0.60518    0.74984   1.00
C3a      0.24247    0.41599    0.71532   1.00
C3       0.26710    0.58382    0.71924   1.00
C3       0.25722    0.41611    0.78414   1.00
C3a      0.23309    0.58403    0.78086   1.00
H1       0.23614    0.47294    0.68866   1.00
H1       0.28112    0.52750    0.69516   1.00
C5       0.23437    0.39410    0.67813   1.00
H1       0.28039    0.59933    0.69514   1.00
H1       0.26331    0.40056    0.81095   1.00
C5       0.21452    0.60535    0.81447   1.00
H1       0.21903    0.52747    0.80451   1.00
H1       0.26353    0.47230    0.81132   1.00
H2       0.23100    0.59837    0.84152   1.00
H2       0.21620    0.63747    0.81028   1.00
N1       0.17360    0.59395    0.81868   1.00
C6       0.16023    0.55810    0.82757   1.00
C6       0.14245    0.61757    0.81473   1.00
C6       0.12002    0.55873    0.82915   1.00
C6       0.10871    0.59656    0.82098   1.00
H3       0.17848    0.53281    0.83267   1.00
H3       0.14405    0.64831    0.80759   1.00
H3       0.10104    0.53436    0.83560   1.00
H3       0.07919    0.60758    0.81975   1.00
H2       0.23643    0.36228    0.68403   1.00
H2       0.20438    0.40001    0.66736   1.00
N1       0.26236    0.40523    0.64802   1.00
C6       0.28967    0.38078    0.62876   1.00
C6       0.26786    0.44285    0.63157   1.00
C6       0.31049    0.40277    0.60219   1.00
C6       0.29711    0.44091    0.60392   1.00
H3       0.29343    0.34992    0.63429   1.00
H3       0.25182    0.46876    0.63989   1.00
H3       0.33337    0.39205    0.58331   1.00
H3       0.30780    0.46505    0.58667   1.00
C4       0.02085    0.24994    0.75038   1.00
C4       -0.02085   0.25006    0.74962   1.00
C3       0.04249    0.21552    0.75769   1.00
C3       -0.04252   0.21927    0.73271   1.00
C3       0.04262    0.28425    0.74297   1.00
C3       -0.04259   0.28078    0.76665   1.00
C2       0.10518    0.24984    0.74997   1.00
C2       -0.10518   0.24984    0.74997   1.00
C3a      0.08401    0.21532    0.75753   1.00
C3       -0.08382   0.21924    0.73290   1.00
C3       0.08389    0.28414    0.74278   1.00
C3a      -0.08403   0.28086    0.76691   1.00
H1       0.02706    0.18866    0.76386   1.00
H1       -0.02750   0.19516    0.71888   1.00
C5       0.10590    0.17813    0.76563   1.00
H1       -0.09933   0.19514    0.71961   1.00
H1       0.09944    0.31095    0.73669   1.00
C5       -0.10535   0.31447    0.78548   1.00
H1       -0.02747   0.30451    0.78097   1.00
H1       0.02770    0.31132    0.73647   1.00
H2       -0.09837   0.34152    0.76900   1.00
H2       -0.13747   0.31028    0.78380   1.00
N1       -0.09395   0.31868    0.82640   1.00
C6       -0.05810   0.32757    0.83977   1.00
C6       -0.11757   0.31473    0.85755   1.00
C6       -0.05873   0.32915    0.87998   1.00
C6       -0.09656   0.32098    0.89129   1.00
H3       -0.03281   0.33267    0.82152   1.00
H3       -0.14831   0.30759    0.85595   1.00
H3       -0.03436   0.33560    0.89896   1.00
H3       -0.10758   0.31975    0.92081   1.00
H2       0.13772    0.18403    0.76357   1.00
H2       0.09999    0.16736    0.79562   1.00
N1       0.09477    0.14802    0.73764   1.00
C6       0.11922    0.12876    0.71033   1.00
C6       0.05715    0.13157    0.73214   1.00
C6       0.09723    0.10219    0.68951   1.00
C6       0.05909    0.10392    0.70289   1.00
H3       0.15008    0.13429    0.70657   1.00
H3       0.03124    0.13989    0.74818   1.00
H3       0.10795    0.08331    0.66663   1.00
H3       0.03495    0.08667    0.69220   1.00
C4       0.47915    0.24994    0.74962   1.00
C4       0.52085    0.25006    0.75038   1.00
C3       0.45751    0.21552    0.74231   1.00
C3       0.54252    0.21927    0.76729   1.00
C3       0.45738    0.28425    0.75703   1.00
C3       0.54259    0.28078    0.73335   1.00
C2       0.39482    0.24984    0.75003   1.00
C2       0.60518    0.24984    0.75003   1.00
C3a      0.41599    0.21532    0.74247   1.00
C3       0.58382    0.21924    0.76710   1.00
C3       0.41611    0.28414    0.75722   1.00
C3a      0.58403    0.28086    0.73309   1.00
H1       0.47294    0.18866    0.73614   1.00
H1       0.52750    0.19516    0.78112   1.00
C5       0.39410    0.17813    0.73437   1.00
H1       0.59933    0.19514    0.78039   1.00
H1       0.40056    0.31095    0.76331   1.00
C5       0.60535    0.31447    0.71452   1.00
H1       0.52747    0.30451    0.71903   1.00
H1       0.47230    0.31132    0.76353   1.00
H2       0.59837    0.34152    0.73100   1.00
H2       0.63747    0.31028    0.71620   1.00
N1       0.59395    0.31868    0.67360   1.00
C6       0.55810    0.32757    0.66023   1.00
C6       0.61757    0.31473    0.64245   1.00
C6       0.55873    0.32915    0.62002   1.00
C6       0.59656    0.32098    0.60871   1.00
H3       0.53281    0.33267    0.67848   1.00
H3       0.64831    0.30759    0.64405   1.00
H3       0.53436    0.33560    0.60104   1.00
H3       0.60758    0.31975    0.57919   1.00
H2       0.36228    0.18403    0.73643   1.00
H2       0.40001    0.16736    0.70438   1.00
N1       0.40523    0.14802    0.76236   1.00
C6       0.38078    0.12876    0.78967   1.00
C6       0.44285    0.13157    0.76786   1.00
C6       0.40277    0.10219    0.81049   1.00
C6       0.44091    0.10392    0.79711   1.00
H3       0.34992    0.13429    0.79343   1.00
H3       0.46876    0.13989    0.75182   1.00
H3       0.39205    0.08331    0.83337   1.00
H3       0.46505    0.08667    0.80780   1.00
C4       0.25038    0.02085    0.74994   1.00
C4       0.24962    -0.02085   0.75006   1.00
C3       0.25769    0.04249    0.71552   1.00
C3       0.23271    -0.04252   0.71927   1.00
C3       0.24297    0.04262    0.78425   1.00
C3       0.26665    -0.04259   0.78078   1.00
C2       0.24997    0.10518    0.74984   1.00
C2       0.24997    -0.10518   0.74984   1.00
C3a      0.25753    0.08401    0.71532   1.00
C3       0.23290    -0.08382   0.71924   1.00
C3       0.24278    0.08389    0.78414   1.00
C3a      0.26691    -0.08403   0.78086   1.00
H1       0.26386    0.02706    0.68866   1.00
H1       0.21888    -0.02750   0.69516   1.00
C5       0.26563    0.10590    0.67813   1.00
H1       0.21961    -0.09933   0.69514   1.00
H1       0.23669    0.09944    0.81095   1.00
C5       0.28548    -0.10535   0.81447   1.00
H1       0.28097    -0.02747   0.80451   1.00
H1       0.23647    0.02770    0.81132   1.00
H2       0.26900    -0.09837   0.84152   1.00
H2       0.28380    -0.13747   0.81028   1.00
N1       0.32640    -0.09395   0.81868   1.00
C6       0.33977    -0.05810   0.82757   1.00
C6       0.35755    -0.11757   0.81473   1.00
C6       0.37998    -0.05873   0.82915   1.00
C6       0.39129    -0.09656   0.82098   1.00
H3       0.32152    -0.03281   0.83267   1.00
H3       0.35595    -0.14831   0.80759   1.00
H3       0.39896    -0.03436   0.83560   1.00
H3       0.42081    -0.10758   0.81975   1.00
H2       0.26357    0.13772    0.68403   1.00
H2       0.29562    0.09999    0.66736   1.00
N1       0.23764    0.09477    0.64802   1.00
C6       0.21033    0.11922    0.62876   1.00
C6       0.23214    0.05715    0.63157   1.00
C6       0.18951    0.09723    0.60219   1.00
C6       0.20289    0.05909    0.60392   1.00
H3       0.20657    0.15008    0.63429   1.00
H3       0.24818    0.03124    0.63989   1.00
H3       0.16663    0.10795    0.58331   1.00
H3       0.19220    0.03495    0.58667   1.00
C4       0.24994    0.25038    0.52085   1.00
C4       0.25006    0.24962    0.47915   1.00
C3       0.21552    0.25769    0.54249   1.00
C3       0.21927    0.23271    0.45748   1.00
C3       0.28425    0.24297    0.54262   1.00
C3       0.28078    0.26665    0.45741   1.00
C2       0.24984    0.24997    0.60518   1.00
C2       0.24984    0.24997    0.39482   1.00
C3a      0.21532    0.25753    0.58401   1.00
C3       0.21924    0.23290    0.41618   1.00
C3       0.28414    0.24278    0.58389   1.00
C3a      0.28086    0.26691    0.41597   1.00
H1       0.18866    0.26386    0.52706   1.00
H1       0.19516    0.21888    0.47250   1.00
C5       0.17813    0.26563    0.60590   1.00
H1       0.19514    0.21961    0.40067   1.00
H1       0.31095    0.23669    0.59944   1.00
C5       0.31447    0.28548    0.39465   1.00
H1       0.30451    0.28097    0.47253   1.00
H1       0.31132    0.23647    0.52770   1.00
H2       0.34152    0.26900    0.40163   1.00
H2       0.31028    0.28380    0.36253   1.00
N1       0.31868    0.32640    0.40605   1.00
C6       0.32757    0.33977    0.44190   1.00
C6       0.31473    0.35755    0.38243   1.00
C6       0.32915    0.37998    0.44127   1.00
C6       0.32098    0.39129    0.40344   1.00
H3       0.33267    0.32152    0.46719   1.00
H3       0.30759    0.35595    0.35169   1.00
H3       0.33560    0.39896    0.46564   1.00
H3       0.31975    0.42081    0.39242   1.00
H2       0.18403    0.26357    0.63772   1.00
H2       0.16736    0.29562    0.59999   1.00
N1       0.14802    0.23764    0.59477   1.00
C6       0.12876    0.21033    0.61922   1.00
C6       0.13157    0.23214    0.55715   1.00
C6       0.10219    0.18951    0.59723   1.00
C6       0.10392    0.20289    0.55909   1.00
H3       0.13429    0.20657    0.65008   1.00
H3       0.13989    0.24818    0.53124   1.00
H3       0.08331    0.16663    0.60795   1.00
H3       0.08667    0.19220    0.53495   1.00
C4       0.24994    0.74962    0.47915   1.00
C4       0.25006    0.75038    0.52085   1.00
C3       0.21552    0.74231    0.45751   1.00
C3       0.21927    0.76729    0.54252   1.00
C3       0.28425    0.75703    0.45738   1.00
C3       0.28078    0.73335    0.54259   1.00
C2       0.24984    0.75003    0.39482   1.00
C2       0.24984    0.75003    0.60518   1.00
C3a      0.21532    0.74247    0.41599   1.00
C3       0.21924    0.76710    0.58382   1.00
C3       0.28414    0.75722    0.41611   1.00
C3a      0.28086    0.73309    0.58403   1.00
H1       0.18866    0.73614    0.47294   1.00
H1       0.19516    0.78112    0.52750   1.00
C5       0.17813    0.73437    0.39410   1.00
H1       0.19514    0.78039    0.59933   1.00
H1       0.31095    0.76331    0.40056   1.00
C5       0.31447    0.71452    0.60535   1.00
H1       0.30451    0.71903    0.52747   1.00
H1       0.31132    0.76353    0.47230   1.00
H2       0.34152    0.73100    0.59837   1.00
H2       0.31028    0.71620    0.63747   1.00
N1       0.31868    0.67360    0.59395   1.00
C6       0.32757    0.66023    0.55810   1.00
C6       0.31473    0.64245    0.61757   1.00
C6       0.32915    0.62002    0.55873   1.00
C6       0.32098    0.60871    0.59656   1.00
H3       0.33267    0.67848    0.53281   1.00
H3       0.30759    0.64405    0.64831   1.00
H3       0.33560    0.60104    0.53436   1.00
H3       0.31975    0.57919    0.60758   1.00
H2       0.18403    0.73643    0.36228   1.00
H2       0.16736    0.70438    0.40001   1.00
N1       0.14802    0.76236    0.40523   1.00
C6       0.12876    0.78967    0.38078   1.00
C6       0.13157    0.76786    0.44285   1.00
C6       0.10219    0.81049    0.40277   1.00
C6       0.10392    0.79711    0.44091   1.00
H3       0.13429    0.79343    0.34992   1.00
H3       0.13989    0.75182    0.46876   1.00
H3       0.08331    0.83337    0.39205   1.00
H3       0.08667    0.80780    0.46505   1.00
C4       0.24962    0.97915    0.24994   1.00
C4       0.25038    1.02085    0.25006   1.00
C3       0.24231    0.95751    0.21552   1.00
C3       0.26729    1.04252    0.21927   1.00
C3       0.25703    0.95738    0.28425   1.00
C3       0.23335    1.04259    0.28078   1.00
C2       0.25003    0.89482    0.24984   1.00
C2       0.25003    1.10518    0.24984   1.00
C3a      0.24247    0.91599    0.21532   1.00
C3       0.26710    1.08382    0.21924   1.00
C3       0.25722    0.91611    0.28414   1.00
C3a      0.23309    1.08403    0.28086   1.00
H1       0.23614    0.97294    0.18866   1.00
H1       0.28112    1.02750    0.19516   1.00
C5       0.23437    0.89410    0.17813   1.00
H1       0.28039    1.09933    0.19514   1.00
H1       0.26331    0.90056    0.31095   1.00
C5       0.21452    1.10535    0.31447   1.00
H1       0.21903    1.02747    0.30451   1.00
H1       0.26353    0.97230    0.31132   1.00
H2       0.23100    1.09837    0.34152   1.00
H2       0.21620    1.13747    0.31028   1.00
N1       0.17360    1.09395    0.31868   1.00
C6       0.16023    1.05810    0.32757   1.00
C6       0.14245    1.11757    0.31473   1.00
C6       0.12002    1.05873    0.32915   1.00
C6       0.10871    1.09656    0.32098   1.00
H3       0.17848    1.03281    0.33267   1.00
H3       0.14405    1.14831    0.30759   1.00
H3       0.10104    1.03436    0.33560   1.00
H3       0.07919    1.10758    0.31975   1.00
H2       0.23643    0.86228    0.18403   1.00
H2       0.20438    0.90001    0.16736   1.00
N1       0.26236    0.90523    0.14802   1.00
C6       0.28967    0.88078    0.12876   1.00
C6       0.26786    0.94285    0.13157   1.00
C6       0.31049    0.90277    0.10219   1.00
C6       0.29711    0.94091    0.10392   1.00
H3       0.29343    0.84992    0.13429   1.00
H3       0.25182    0.96876    0.13989   1.00
H3       0.33337    0.89205    0.08331   1.00
H3       0.30780    0.96505    0.08667   1.00
C4       0.02085    0.74994    0.25038   1.00
C4       -0.02085   0.75006    0.24962   1.00
C3       0.04249    0.71552    0.25769   1.00
C3       -0.04252   0.71927    0.23271   1.00
C3       0.04262    0.78425    0.24297   1.00
C3       -0.04259   0.78078    0.26665   1.00
C2       0.10518    0.74984    0.24997   1.00
C2       -0.10518   0.74984    0.24997   1.00
C3a      0.08401    0.71532    0.25753   1.00
C3       -0.08382   0.71924    0.23290   1.00
C3       0.08389    0.78414    0.24278   1.00
C3a      -0.08403   0.78086    0.26691   1.00
H1       0.02706    0.68866    0.26386   1.00
H1       -0.02750   0.69516    0.21888   1.00
C5       0.10590    0.67813    0.26563   1.00
H1       -0.09933   0.69514    0.21961   1.00
H1       0.09944    0.81095    0.23669   1.00
C5       -0.10535   0.81447    0.28548   1.00
H1       -0.02747   0.80451    0.28097   1.00
H1       0.02770    0.81132    0.23647   1.00
H2       -0.09837   0.84152    0.26900   1.00
H2       -0.13747   0.81028    0.28380   1.00
N1       -0.09395   0.81868    0.32640   1.00
C6       -0.05810   0.82757    0.33977   1.00
C6       -0.11757   0.81473    0.35755   1.00
C6       -0.05873   0.82915    0.37998   1.00
C6       -0.09656   0.82098    0.39129   1.00
H3       -0.03281   0.83267    0.32152   1.00
H3       -0.14831   0.80759    0.35595   1.00
H3       -0.03436   0.83560    0.39896   1.00
H3       -0.10758   0.81975    0.42081   1.00
H2       0.13772    0.68403    0.26357   1.00
H2       0.09999    0.66736    0.29562   1.00
N1       0.09477    0.64802    0.23764   1.00
C6       0.11922    0.62876    0.21033   1.00
C6       0.05715    0.63157    0.23214   1.00
C6       0.09723    0.60219    0.18951   1.00
C6       0.05909    0.60392    0.20289   1.00
H3       0.15008    0.63429    0.20657   1.00
H3       0.03124    0.63989    0.24818   1.00
H3       0.10795    0.58331    0.16663   1.00
H3       0.03495    0.58667    0.19220   1.00
C4       0.47915    0.74994    0.24962   1.00
C4       0.52085    0.75006    0.25038   1.00
C3       0.45751    0.71552    0.24231   1.00
C3       0.54252    0.71927    0.26729   1.00
C3       0.45738    0.78425    0.25703   1.00
C3       0.54259    0.78078    0.23335   1.00
C2       0.39482    0.74984    0.25003   1.00
C2       0.60518    0.74984    0.25003   1.00
C3a      0.41599    0.71532    0.24247   1.00
C3       0.58382    0.71924    0.26710   1.00
C3       0.41611    0.78414    0.25722   1.00
C3a      0.58403    0.78086    0.23309   1.00
H1       0.47294    0.68866    0.23614   1.00
H1       0.52750    0.69516    0.28112   1.00
C5       0.39410    0.67813    0.23437   1.00
H1       0.59933    0.69514    0.28039   1.00
H1       0.40056    0.81095    0.26331   1.00
C5       0.60535    0.81447    0.21452   1.00
H1       0.52747    0.80451    0.21903   1.00
H1       0.47230    0.81132    0.26353   1.00
H2       0.59837    0.84152    0.23100   1.00
H2       0.63747    0.81028    0.21620   1.00
N1       0.59395    0.81868    0.17360   1.00
C6       0.55810    0.82757    0.16023   1.00
C6       0.61757    0.81473    0.14245   1.00
C6       0.55873    0.82915    0.12002   1.00
C6       0.59656    0.82098    0.10871   1.00
H3       0.53281    0.83267    0.17848   1.00
H3       0.64831    0.80759    0.14405   1.00
H3       0.53436    0.83560    0.10104   1.00
H3       0.60758    0.81975    0.07919   1.00
H2       0.36228    0.68403    0.23643   1.00
H2       0.40001    0.66736    0.20438   1.00
N1       0.40523    0.64802    0.26236   1.00
C6       0.38078    0.62876    0.28967   1.00
C6       0.44285    0.63157    0.26786   1.00
C6       0.40277    0.60219    0.31049   1.00
C6       0.44091    0.60392    0.29711   1.00
H3       0.34992    0.63429    0.29343   1.00
H3       0.46876    0.63989    0.25182   1.00
H3       0.39205    0.58331    0.33337   1.00
H3       0.46505    0.58667    0.30780   1.00
C4       0.25038    0.52085    0.24994   1.00
C4       0.24962    0.47915    0.25006   1.00
C3       0.25769    0.54249    0.21552   1.00
C3       0.23271    0.45748    0.21927   1.00
C3       0.24297    0.54262    0.28425   1.00
C3       0.26665    0.45741    0.28078   1.00
C2       0.24997    0.60518    0.24984   1.00
C2       0.24997    0.39482    0.24984   1.00
C3a      0.25753    0.58401    0.21532   1.00
C3       0.23290    0.41618    0.21924   1.00
C3       0.24278    0.58389    0.28414   1.00
C3a      0.26691    0.41597    0.28086   1.00
H1       0.26386    0.52706    0.18866   1.00
H1       0.21888    0.47250    0.19516   1.00
C5       0.26563    0.60590    0.17813   1.00
H1       0.21961    0.40067    0.19514   1.00
H1       0.23669    0.59944    0.31095   1.00
C5       0.28548    0.39465    0.31447   1.00
H1       0.28097    0.47253    0.30451   1.00
H1       0.23647    0.52770    0.31132   1.00
H2       0.26900    0.40163    0.34152   1.00
H2       0.28380    0.36253    0.31028   1.00
N1       0.32640    0.40605    0.31868   1.00
C6       0.33977    0.44190    0.32757   1.00
C6       0.35755    0.38243    0.31473   1.00
C6       0.37998    0.44127    0.32915   1.00
C6       0.39129    0.40344    0.32098   1.00
H3       0.32152    0.46719    0.33267   1.00
H3       0.35595    0.35169    0.30759   1.00
H3       0.39896    0.46564    0.33560   1.00
H3       0.42081    0.39242    0.31975   1.00
H2       0.26357    0.63772    0.18403   1.00
H2       0.29562    0.59999    0.16736   1.00
N1       0.23764    0.59477    0.14802   1.00
C6       0.21033    0.61922    0.12876   1.00
C6       0.23214    0.55715    0.13157   1.00
C6       0.18951    0.59723    0.10219   1.00
C6       0.20289    0.55909    0.10392   1.00
H3       0.20657    0.65008    0.13429   1.00
H3       0.24818    0.53124    0.13989   1.00
H3       0.16663    0.60795    0.08331   1.00
H3       0.19220    0.53495    0.08667   1.00
C4       0.24994    0.75038    0.02085   1.00
C4       0.25006    0.74962    -0.02085   1.00
C3       0.21552    0.75769    0.04249   1.00
C3       0.21927    0.73271    -0.04252   1.00
C3       0.28425    0.74297    0.04262   1.00
C3       0.28078    0.76665    -0.04259   1.00
C2       0.24984    0.74997    0.10518   1.00
C2       0.24984    0.74997    -0.10518   1.00
C3a      0.21532    0.75753    0.08401   1.00
C3       0.21924    0.73290    -0.08382   1.00
C3       0.28414    0.74278    0.08389   1.00
C3a      0.28086    0.76691    -0.08403   1.00
H1       0.18866    0.76386    0.02706   1.00
H1       0.19516    0.71888    -0.02750   1.00
C5       0.17813    0.76563    0.10590   1.00
H1       0.19514    0.71961    -0.09933   1.00
H1       0.31095    0.73669    0.09944   1.00
C5       0.31447    0.78548    -0.10535   1.00
H1       0.30451    0.78097    -0.02747   1.00
H1       0.31132    0.73647    0.02770   1.00
H2       0.34152    0.76900    -0.09837   1.00
H2       0.31028    0.78380    -0.13747   1.00
N1       0.31868    0.82640    -0.09395   1.00
C6       0.32757    0.83977    -0.05810   1.00
C6       0.31473    0.85755    -0.11757   1.00
C6       0.32915    0.87998    -0.05873   1.00
C6       0.32098    0.89129    -0.09656   1.00
H3       0.33267    0.82152    -0.03281   1.00
H3       0.30759    0.85595    -0.14831   1.00
H3       0.33560    0.89896    -0.03436   1.00
H3       0.31975    0.92081    -0.10758   1.00
H2       0.18403    0.76357    0.13772   1.00
H2       0.16736    0.79562    0.09999   1.00
N1       0.14802    0.73764    0.09477   1.00
C6       0.12876    0.71033    0.11922   1.00
C6       0.13157    0.73214    0.05715   1.00
C6       0.10219    0.68951    0.09723   1.00
C6       0.10392    0.70289    0.05909   1.00
H3       0.13429    0.70657    0.15008   1.00
H3       0.13989    0.74818    0.03124   1.00
H3       0.08331    0.66663    0.10795   1.00
H3       0.08667    0.69220    0.03495   1.00
C4       0.74994    0.24962    0.47915   1.00
C4       0.75006    0.25038    0.52085   1.00
C3       0.71552    0.24231    0.45751   1.00
C3       0.71927    0.26729    0.54252   1.00
C3       0.78425    0.25703    0.45738   1.00
C3       0.78078    0.23335    0.54259   1.00
C2       0.74984    0.25003    0.39482   1.00
C2       0.74984    0.25003    0.60518   1.00
C3a      0.71532    0.24247    0.41599   1.00
C3       0.71924    0.26710    0.58382   1.00
C3       0.78414    0.25722    0.41611   1.00
C3a      0.78086    0.23309    0.58403   1.00
H1       0.68866    0.23614    0.47294   1.00
H1       0.69516    0.28112    0.52750   1.00
C5       0.67813    0.23437    0.39410   1.00
H1       0.69514    0.28039    0.59933   1.00
H1       0.81095    0.26331    0.40056   1.00
C5       0.81447    0.21452    0.60535   1.00
H1       0.80451    0.21903    0.52747   1.00
H1       0.81132    0.26353    0.47230   1.00
H2       0.84152    0.23100    0.59837   1.00
H2       0.81028    0.21620    0.63747   1.00
N1       0.81868    0.17360    0.59395   1.00
C6       0.82757    0.16023    0.55810   1.00
C6       0.81473    0.14245    0.61757   1.00
C6       0.82915    0.12002    0.55873   1.00
C6       0.82098    0.10871    0.59656   1.00
H3       0.83267    0.17848    0.53281   1.00
H3       0.80759    0.14405    0.64831   1.00
H3       0.83560    0.10104    0.53436   1.00
H3       0.81975    0.07919    0.60758   1.00
H2       0.68403    0.23643    0.36228   1.00
H2       0.66736    0.20438    0.40001   1.00
N1       0.64802    0.26236    0.40523   1.00
C6       0.62876    0.28967    0.38078   1.00
C6       0.63157    0.26786    0.44285   1.00
C6       0.60219    0.31049    0.40277   1.00
C6       0.60392    0.29711    0.44091   1.00
H3       0.63429    0.29343    0.34992   1.00
H3       0.63989    0.25182    0.46876   1.00
H3       0.58331    0.33337    0.39205   1.00
H3       0.58667    0.30780    0.46505   1.00
C4       0.74962    0.47915    0.24994   1.00
C4       0.75038    0.52085    0.25006   1.00
C3       0.74231    0.45751    0.21552   1.00
C3       0.76729    0.54252    0.21927   1.00
C3       0.75703    0.45738    0.28425   1.00
C3       0.73335    0.54259    0.28078   1.00
C2       0.75003    0.39482    0.24984   1.00
C2       0.75003    0.60518    0.24984   1.00
C3a      0.74247    0.41599    0.21532   1.00
C3       0.76710    0.58382    0.21924   1.00
C3       0.75722    0.41611    0.28414   1.00
C3a      0.73309    0.58403    0.28086   1.00
H1       0.73614    0.47294    0.18866   1.00
H1       0.78112    0.52750    0.19516   1.00
C5       0.73437    0.39410    0.17813   1.00
H1       0.78039    0.59933    0.19514   1.00
H1       0.76331    0.40056    0.31095   1.00
C5       0.71452    0.60535    0.31447   1.00
H1       0.71903    0.52747    0.30451   1.00
H1       0.76353    0.47230    0.31132   1.00
H2       0.73100    0.59837    0.34152   1.00
H2       0.71620    0.63747    0.31028   1.00
N1       0.67360    0.59395    0.31868   1.00
C6       0.66023    0.55810    0.32757   1.00
C6       0.64245    0.61757    0.31473   1.00
C6       0.62002    0.55873    0.32915   1.00
C6       0.60871    0.59656    0.32098   1.00
H3       0.67848    0.53281    0.33267   1.00
H3       0.64405    0.64831    0.30759   1.00
H3       0.60104    0.53436    0.33560   1.00
H3       0.57919    0.60758    0.31975   1.00
H2       0.73643    0.36228    0.18403   1.00
H2       0.70438    0.40001    0.16736   1.00
N1       0.76236    0.40523    0.14802   1.00
C6       0.78967    0.38078    0.12876   1.00
C6       0.76786    0.44285    0.13157   1.00
C6       0.81049    0.40277    0.10219   1.00
C6       0.79711    0.44091    0.10392   1.00
H3       0.79343    0.34992    0.13429   1.00
H3       0.75182    0.46876    0.13989   1.00
H3       0.83337    0.39205    0.08331   1.00
H3       0.80780    0.46505    0.08667   1.00
C4       0.52085    0.24994    0.25038   1.00
C4       0.47915    0.25006    0.24962   1.00
C3       0.54249    0.21552    0.25769   1.00
C3       0.45748    0.21927    0.23271   1.00
C3       0.54262    0.28425    0.24297   1.00
C3       0.45741    0.28078    0.26665   1.00
C2       0.60518    0.24984    0.24997   1.00
C2       0.39482    0.24984    0.24997   1.00
C3a      0.58401    0.21532    0.25753   1.00
C3       0.41618    0.21924    0.23290   1.00
C3       0.58389    0.28414    0.24278   1.00
C3a      0.41597    0.28086    0.26691   1.00
H1       0.52706    0.18866    0.26386   1.00
H1       0.47250    0.19516    0.21888   1.00
C5       0.60590    0.17813    0.26563   1.00
H1       0.40067    0.19514    0.21961   1.00
H1       0.59944    0.31095    0.23669   1.00
C5       0.39465    0.31447    0.28548   1.00
H1       0.47253    0.30451    0.28097   1.00
H1       0.52770    0.31132    0.23647   1.00
H2       0.40163    0.34152    0.26900   1.00
H2       0.36253    0.31028    0.28380   1.00
N1       0.40605    0.31868    0.32640   1.00
C6       0.44190    0.32757    0.33977   1.00
C6       0.38243    0.31473    0.35755   1.00
C6       0.44127    0.32915    0.37998   1.00
C6       0.40344    0.32098    0.39129   1.00
H3       0.46719    0.33267    0.32152   1.00
H3       0.35169    0.30759    0.35595   1.00
H3       0.46564    0.33560    0.39896   1.00
H3       0.39242    0.31975    0.42081   1.00
H2       0.63772    0.18403    0.26357   1.00
H2       0.59999    0.16736    0.29562   1.00
N1       0.59477    0.14802    0.23764   1.00
C6       0.61922    0.12876    0.21033   1.00
C6       0.55715    0.13157    0.23214   1.00
C6       0.59723    0.10219    0.18951   1.00
C6       0.55909    0.10392    0.20289   1.00
H3       0.65008    0.13429    0.20657   1.00
H3       0.53124    0.13989    0.24818   1.00
H3       0.60795    0.08331    0.16663   1.00
H3       0.53495    0.08667    0.19220   1.00
C4       0.97915    0.24994    0.24962   1.00
C4       1.02085    0.25006    0.25038   1.00
C3       0.95751    0.21552    0.24231   1.00
C3       1.04252    0.21927    0.26729   1.00
C3       0.95738    0.28425    0.25703   1.00
C3       1.04259    0.28078    0.23335   1.00
C2       0.89482    0.24984    0.25003   1.00
C2       1.10518    0.24984    0.25003   1.00
C3a      0.91599    0.21532    0.24247   1.00
C3       1.08382    0.21924    0.26710   1.00
C3       0.91611    0.28414    0.25722   1.00
C3a      1.08403    0.28086    0.23309   1.00
H1       0.97294    0.18866    0.23614   1.00
H1       1.02750    0.19516    0.28112   1.00
C5       0.89410    0.17813    0.23437   1.00
H1       1.09933    0.19514    0.28039   1.00
H1       0.90056    0.31095    0.26331   1.00
C5       1.10535    0.31447    0.21452   1.00
H1       1.02747    0.30451    0.21903   1.00
H1       0.97230    0.31132    0.26353   1.00
H2       1.09837    0.34152    0.23100   1.00
H2       1.13747    0.31028    0.21620   1.00
N1       1.09395    0.31868    0.17360   1.00
C6       1.05810    0.32757    0.16023   1.00
C6       1.11757    0.31473    0.14245   1.00
C6       1.05873    0.32915    0.12002   1.00
C6       1.09656    0.32098    0.10871   1.00
H3       1.03281    0.33267    0.17848   1.00
H3       1.14831    0.30759    0.14405   1.00
H3       1.03436    0.33560    0.10104   1.00
H3       1.10758    0.31975    0.07919   1.00
H2       0.86228    0.18403    0.23643   1.00
H2       0.90001    0.16736    0.20438   1.00
N1       0.90523    0.14802    0.26236   1.00
C6       0.88078    0.12876    0.28967   1.00
C6       0.94285    0.13157    0.26786   1.00
C6       0.90277    0.10219    0.31049   1.00
C6       0.94091    0.10392    0.29711   1.00
H3       0.84992    0.13429    0.29343   1.00
H3       0.96876    0.13989    0.25182   1.00
H3       0.89205    0.08331    0.33337   1.00
H3       0.96505    0.08667    0.30780   1.00
C4       0.75038    0.02085    0.24994   1.00
C4       0.74962    -0.02085   0.25006   1.00
C3       0.75769    0.04249    0.21552   1.00
C3       0.73271    -0.04252   0.21927   1.00
C3       0.74297    0.04262    0.28425   1.00
C3       0.76665    -0.04259   0.28078   1.00
C2       0.74997    0.10518    0.24984   1.00
C2       0.74997    -0.10518   0.24984   1.00
C3a      0.75753    0.08401    0.21532   1.00
C3       0.73290    -0.08382   0.21924   1.00
C3       0.74278    0.08389    0.28414   1.00
C3a      0.76691    -0.08403   0.28086   1.00
H1       0.76386    0.02706    0.18866   1.00
H1       0.71888    -0.02750   0.19516   1.00
C5       0.76563    0.10590    0.17813   1.00
H1       0.71961    -0.09933   0.19514   1.00
H1       0.73669    0.09944    0.31095   1.00
C5       0.78548    -0.10535   0.31447   1.00
H1       0.78097    -0.02747   0.30451   1.00
H1       0.73647    0.02770    0.31132   1.00
H2       0.76900    -0.09837   0.34152   1.00
H2       0.78380    -0.13747   0.31028   1.00
N1       0.82640    -0.09395   0.31868   1.00
C6       0.83977    -0.05810   0.32757   1.00
C6       0.85755    -0.11757   0.31473   1.00
C6       0.87998    -0.05873   0.32915   1.00
C6       0.89129    -0.09656   0.32098   1.00
H3       0.82152    -0.03281   0.33267   1.00
H3       0.85595    -0.14831   0.30759   1.00
H3       0.89896    -0.03436   0.33560   1.00
H3       0.92081    -0.10758   0.31975   1.00
H2       0.76357    0.13772    0.18403   1.00
H2       0.79562    0.09999    0.16736   1.00
N1       0.73764    0.09477    0.14802   1.00
C6       0.71033    0.11922    0.12876   1.00
C6       0.73214    0.05715    0.13157   1.00
C6       0.68951    0.09723    0.10219   1.00
C6       0.70289    0.05909    0.10392   1.00
H3       0.70657    0.15008    0.13429   1.00
H3       0.74818    0.03124    0.13989   1.00
H3       0.66663    0.10795    0.08331   1.00
H3       0.69220    0.03495    0.08667   1.00
C4       0.74994    0.25038    0.02085   1.00
C4       0.75006    0.24962    -0.02085   1.00
C3       0.71552    0.25769    0.04249   1.00
C3       0.71927    0.23271    -0.04252   1.00
C3       0.78425    0.24297    0.04262   1.00
C3       0.78078    0.26665    -0.04259   1.00
C2       0.74984    0.24997    0.10518   1.00
C2       0.74984    0.24997    -0.10518   1.00
C3a      0.71532    0.25753    0.08401   1.00
C3       0.71924    0.23290    -0.08382   1.00
C3       0.78414    0.24278    0.08389   1.00
C3a      0.78086    0.26691    -0.08403   1.00
H1       0.68866    0.26386    0.02706   1.00
H1       0.69516    0.21888    -0.02750   1.00
C5       0.67813    0.26563    0.10590   1.00
H1       0.69514    0.21961    -0.09933   1.00
H1       0.81095    0.23669    0.09944   1.00
C5       0.81447    0.28548    -0.10535   1.00
H1       0.80451    0.28097    -0.02747   1.00
H1       0.81132    0.23647    0.02770   1.00
H2       0.84152    0.26900    -0.09837   1.00
H2       0.81028    0.28380    -0.13747   1.00
N1       0.81868    0.32640    -0.09395   1.00
C6       0.82757    0.33977    -0.05810   1.00
C6       0.81473    0.35755    -0.11757   1.00
C6       0.82915    0.37998    -0.05873   1.00
C6       0.82098    0.39129    -0.09656   1.00
H3       0.83267    0.32152    -0.03281   1.00
H3       0.80759    0.35595    -0.14831   1.00
H3       0.83560    0.39896    -0.03436   1.00
H3       0.81975    0.42081    -0.10758   1.00
H2       0.68403    0.26357    0.13772   1.00
H2       0.66736    0.29562    0.09999   1.00
N1       0.64802    0.23764    0.09477   1.00
C6       0.62876    0.21033    0.11922   1.00
C6       0.63157    0.23214    0.05715   1.00
C6       0.60219    0.18951    0.09723   1.00
C6       0.60392    0.20289    0.05909   1.00
H3       0.63429    0.20657    0.15008   1.00
H3       0.63989    0.24818    0.03124   1.00
H3       0.58331    0.16663    0.10795   1.00
H3       0.58667    0.19220    0.03495   1.00
C4       0.99994    0.99962    1.22915   1.00
C4       1.00006    1.00038    1.27085   1.00
C3       0.96552    0.99231    1.20751   1.00
C3       0.96927    1.01729    1.29252   1.00
C3       1.03425    1.00703    1.20738   1.00
C3       1.03078    0.98335    1.29259   1.00
C2       0.99984    1.00003    1.14482   1.00
C2       0.99984    1.00003    1.35518   1.00
C3a      0.96532    0.99247    1.16599   1.00
C3       0.96924    1.01710    1.33382   1.00
C3       1.03414    1.00722    1.16611   1.00
C3a      1.03086    0.98309    1.33403   1.00
H1       0.93866    0.98614    1.22294   1.00
H1       0.94516    1.03112    1.27750   1.00
C5       0.92813    0.98437    1.14410   1.00
H1       0.94514    1.03039    1.34933   1.00
H1       1.06095    1.01331    1.15056   1.00
C5       1.06447    0.96452    1.35535   1.00
H1       1.05451    0.96903    1.27747   1.00
H1       1.06132    1.01353    1.22230   1.00
H2       1.09152    0.98100    1.34837   1.00
H2       1.06028    0.96620    1.38747   1.00
N1       1.06868    0.92360    1.34395   1.00
C6       1.07757    0.91023    1.30810   1.00
C6       1.06473    0.89245    1.36757   1.00
C6       1.07915    0.87002    1.30873   1.00
C6       1.07098    0.85871    1.34656   1.00
H3       1.08267    0.92848    1.28281   1.00
H3       1.05759    0.89405    1.39831   1.00
H3       1.08560    0.85104    1.28436   1.00
H3       1.06975    0.82919    1.35758   1.00
H2       0.93403    0.98643    1.11228   1.00
H2       0.91736    0.95438    1.15001   1.00
N1       0.89802    1.01236    1.15523   1.00
C6       0.87876    1.03967    1.13078   1.00
C6       0.88157    1.01786    1.19285   1.00
C6       0.85219    1.06049    1.15277   1.00
C6       0.85392    1.04711    1.19091   1.00
H3       0.88429    1.04343    1.09992   1.00
H3       0.88989    1.00182    1.21876   1.00
H3       0.83331    1.08337    1.14205   1.00
H3       0.83667    1.05780    1.21505   1.00
C4       0.99962    1.22915    0.99994   1.00
C4       1.00038    1.27085    1.00006   1.00
C3       0.99231    1.20751    0.96552   1.00
C3       1.01729    1.29252    0.96927   1.00
C3       1.00703    1.20738    1.03425   1.00
C3       0.98335    1.29259    1.03078   1.00
C2       1.00003    1.14482    0.99984   1.00
C2       1.00003    1.35518    0.99984   1.00
C3a      0.99247    1.16599    0.96532   1.00
C3       1.01710    1.33382    0.96924   1.00
C3       1.00722    1.16611    1.03414   1.00
C3a      0.98309    1.33403    1.03086   1.00
H1       0.98614    1.22294    0.93866   1.00
H1       1.03112    1.27750    0.94516   1.00
C5       0.98437    1.14410    0.92813   1.00
H1       1.03039    1.34933    0.94514   1.00
H1       1.01331    1.15056    1.06095   1.00
C5       0.96452    1.35535    1.06447   1.00
H1       0.96903    1.27747    1.05451   1.00
H1       1.01353    1.22230    1.06132   1.00
H2       0.98100    1.34837    1.09152   1.00
H2       0.96620    1.38747    1.06028   1.00
N1       0.92360    1.34395    1.06868   1.00
C6       0.91023    1.30810    1.07757   1.00
C6       0.89245    1.36757    1.06473   1.00
C6       0.87002    1.30873    1.07915   1.00
C6       0.85871    1.34656    1.07098   1.00
H3       0.92848    1.28281    1.08267   1.00
H3       0.89405    1.39831    1.05759   1.00
H3       0.85104    1.28436    1.08560   1.00
H3       0.82919    1.35758    1.06975   1.00
H2       0.98643    1.11228    0.93403   1.00
H2       0.95438    1.15001    0.91736   1.00
N1       1.01236    1.15523    0.89802   1.00
C6       1.03967    1.13078    0.87876   1.00
C6       1.01786    1.19285    0.88157   1.00
C6       1.06049    1.15277    0.85219   1.00
C6       1.04711    1.19091    0.85392   1.00
H3       1.04343    1.09992    0.88429   1.00
H3       1.00182    1.21876    0.88989   1.00
H3       1.08337    1.14205    0.83331   1.00
H3       1.05780    1.21505    0.83667   1.00
C4       0.77085    0.99994    1.00038   1.00
C4       0.72915    1.00006    0.99962   1.00
C3       0.79249    0.96552    1.00769   1.00
C3       0.70748    0.96927    0.98271   1.00
C3       0.79262    1.03425    0.99297   1.00
C3       0.70741    1.03078    1.01665   1.00
C2       0.85518    0.99984    0.99997   1.00
C2       0.64482    0.99984    0.99997   1.00
C3a      0.83401    0.96532    1.00753   1.00
C3       0.66618    0.96924    0.98290   1.00
C3       0.83389    1.03414    0.99278   1.00
C3a      0.66597    1.03086    1.01691   1.00
H1       0.77706    0.93866    1.01386   1.00
H1       0.72250    0.94516    0.96888   1.00
C5       0.85590    0.92813    1.01563   1.00
H1       0.65067    0.94514    0.96961   1.00
H1       0.84944    1.06095    0.98669   1.00
C5       0.64465    1.06447    1.03548   1.00
H1       0.72253    1.05451    1.03097   1.00
H1       0.77770    1.06132    0.98647   1.00
H2       0.65163    1.09152    1.01900   1.00
H2       0.61253    1.06028    1.03380   1.00
N1       0.65605    1.06868    1.07640   1.00
C6       0.69190    1.07757    1.08977   1.00
C6       0.63243    1.06473    1.10755   1.00
C6       0.69127    1.07915    1.12998   1.00
C6       0.65344    1.07098    1.14129   1.00
H3       0.71719    1.08267    1.07152   1.00
H3       0.60169    1.05759    1.10595   1.00
H3       0.71564    1.08560    1.14896   1.00
H3       0.64242    1.06975    1.17081   1.00
H2       0.88772    0.93403    1.01357   1.00
H2       0.84999    0.91736    1.04562   1.00
N1       0.84477    0.89802    0.98764   1.00
C6       0.86922    0.87876    0.96033   1.00
C6       0.80715    0.88157    0.98214   1.00
C6       0.84723    0.85219    0.93951   1.00
C6       0.80909    0.85392    0.95289   1.00
H3       0.90008    0.88429    0.95657   1.00
H3       0.78124    0.88989    0.99818   1.00
H3       0.85795    0.83331    0.91663   1.00
H3       0.78495    0.83667    0.94220   1.00
C4       1.22915    0.99994    0.99962   1.00
C4       1.27085    1.00006    1.00038   1.00
C3       1.20751    0.96552    0.99231   1.00
C3       1.29252    0.96927    1.01729   1.00
C3       1.20738    1.03425    1.00703   1.00
C3       1.29259    1.03078    0.98335   1.00
C2       1.14482    0.99984    1.00003   1.00
C2       1.35518    0.99984    1.00003   1.00
C3a      1.16599    0.96532    0.99247   1.00
C3       1.33382    0.96924    1.01710   1.00
C3       1.16611    1.03414    1.00722   1.00
C3a      1.33403    1.03086    0.98309   1.00
H1       1.22294    0.93866    0.98614   1.00
H1       1.27750    0.94516    1.03112   1.00
C5       1.14410    0.92813    0.98437   1.00
H1       1.34933    0.94514    1.03039   1.00
H1       1.15056    1.06095    1.01331   1.00
C5       1.35535    1.06447    0.96452   1.00
H1       1.27747    1.05451    0.96903   1.00
H1       1.22230    1.06132    1.01353   1.00
H2       1.34837    1.09152    0.98100   1.00
H2       1.38747    1.06028    0.96620   1.00
N1       1.34395    1.06868    0.92360   1.00
C6       1.30810    1.07757    0.91023   1.00
C6       1.36757    1.06473    0.89245   1.00
C6       1.30873    1.07915    0.87002   1.00
C6       1.34656    1.07098    0.85871   1.00
H3       1.28281    1.08267    0.92848   1.00
H3       1.39831    1.05759    0.89405   1.00
H3       1.28436    1.08560    0.85104   1.00
H3       1.35758    1.06975    0.82919   1.00
H2       1.11228    0.93403    0.98643   1.00
H2       1.15001    0.91736    0.95438   1.00
N1       1.15523    0.89802    1.01236   1.00
C6       1.13078    0.87876    1.03967   1.00
C6       1.19285    0.88157    1.01786   1.00
C6       1.15277    0.85219    1.06049   1.00
C6       1.19091    0.85392    1.04711   1.00
H3       1.09992    0.88429    1.04343   1.00
H3       1.21876    0.88989    1.00182   1.00
H3       1.14205    0.83331    1.08337   1.00
H3       1.21505    0.83667    1.05780   1.00
C4       1.00038    0.77085    0.99994   1.00
C4       0.99962    0.72915    1.00006   1.00
C3       1.00769    0.79249    0.96552   1.00
C3       0.98271    0.70748    0.96927   1.00
C3       0.99297    0.79262    1.03425   1.00
C3       1.01665    0.70741    1.03078   1.00
C2       0.99997    0.85518    0.99984   1.00
C2       0.99997    0.64482    0.99984   1.00
C3a      1.00753    0.83401    0.96532   1.00
C3       0.98290    0.66618    0.96924   1.00
C3       0.99278    0.83389    1.03414   1.00
C3a      1.01691    0.66597    1.03086   1.00
H1       1.01386    0.77706    0.93866   1.00
H1       0.96888    0.72250    0.94516   1.00
C5       1.01563    0.85590    0.92813   1.00
H1       0.96961    0.65067    0.94514   1.00
H1       0.98669    0.84944    1.06095   1.00
C5       1.03548    0.64465    1.06447   1.00
H1       1.03097    0.72253    1.05451   1.00
H1       0.98647    0.77770    1.06132   1.00
H2       1.01900    0.65163    1.09152   1.00
H2       1.03380    0.61253    1.06028   1.00
N1       1.07640    0.65605    1.06868   1.00
C6       1.08977    0.69190    1.07757   1.00
C6       1.10755    0.63243    1.06473   1.00
C6       1.12998    0.69127    1.07915   1.00
C6       1.14129    0.65344    1.07098   1.00
H3       1.07152    0.71719    1.08267   1.00
H3       1.10595    0.60169    1.05759   1.00
H3       1.14896    0.71564    1.08560   1.00
H3       1.17081    0.64242    1.06975   1.00
H2       1.01357    0.88772    0.93403   1.00
H2       1.04562    0.84999    0.91736   1.00
N1       0.98764    0.84477    0.89802   1.00
C6       0.96033    0.86922    0.87876   1.00
C6       0.98214    0.80715    0.88157   1.00
C6       0.93951    0.84723    0.85219   1.00
C6       0.95289    0.80909    0.85392   1.00
H3       0.95657    0.90008    0.88429   1.00
H3       0.99818    0.78124    0.88989   1.00
H3       0.91663    0.85795    0.83331   1.00
H3       0.94220    0.78495    0.83667   1.00
C4       0.99994    1.00038    0.77085   1.00
C4       1.00006    0.99962    0.72915   1.00
C3       0.96552    1.00769    0.79249   1.00
C3       0.96927    0.98271    0.70748   1.00
C3       1.03425    0.99297    0.79262   1.00
C3       1.03078    1.01665    0.70741   1.00
C2       0.99984    0.99997    0.85518   1.00
C2       0.99984    0.99997    0.64482   1.00
C3a      0.96532    1.00753    0.83401   1.00
C3       0.96924    0.98290    0.66618   1.00
C3       1.03414    0.99278    0.83389   1.00
C3a      1.03086    1.01691    0.66597   1.00
H1       0.93866    1.01386    0.77706   1.00
H1       0.94516    0.96888    0.72250   1.00
C5       0.92813    1.01563    0.85590   1.00
H1       0.94514    0.96961    0.65067   1.00
H1       1.06095    0.98669    0.84944   1.00
C5       1.06447    1.03548    0.64465   1.00
H1       1.05451    1.03097    0.72253   1.00
H1       1.06132    0.98647    0.77770   1.00
H2       1.09152    1.01900    0.65163   1.00
H2       1.06028    1.03380    0.61253   1.00
N1       1.06868    1.07640    0.65605   1.00
C6       1.07757    1.08977    0.69190   1.00
C6       1.06473    1.10755    0.63243   1.00
C6       1.07915    1.12998    0.69127   1.00
C6       1.07098    1.14129    0.65344   1.00
H3       1.08267    1.07152    0.71719   1.00
H3       1.05759    1.10595    0.60169   1.00
H3       1.08560    1.14896    0.71564   1.00
H3       1.06975    1.17081    0.64242   1.00
H2       0.93403    1.01357    0.88772   1.00
H2       0.91736    1.04562    0.84999   1.00
N1       0.89802    0.98764    0.84477   1.00
C6       0.87876    0.96033    0.86922   1.00
C6       0.88157    0.98214    0.80715   1.00
C6       0.85219    0.93951    0.84723   1.00
C6       0.85392    0.95289    0.80909   1.00
H3       0.88429    0.95657    0.90008   1.00
H3       0.88989    0.99818    0.78124   1.00
H3       0.83331    0.91663    0.85795   1.00
H3       0.83667    0.94220    0.78495   1.00
C4       0.49994    0.49962    1.22915   1.00
C4       0.50006    0.50038    1.27085   1.00
C3       0.46552    0.49231    1.20751   1.00
C3       0.46927    0.51729    1.29252   1.00
C3       0.53425    0.50703    1.20738   1.00
C3       0.53078    0.48335    1.29259   1.00
C2       0.49984    0.50003    1.14482   1.00
C2       0.49984    0.50003    1.35518   1.00
C3a      0.46532    0.49247    1.16599   1.00
C3       0.46924    0.51710    1.33382   1.00
C3       0.53414    0.50722    1.16611   1.00
C3a      0.53086    0.48309    1.33403   1.00
H1       0.43866    0.48614    1.22294   1.00
H1       0.44516    0.53112    1.27750   1.00
C5       0.42813    0.48437    1.14410   1.00
H1       0.44514    0.53039    1.34933   1.00
H1       0.56095    0.51331    1.15056   1.00
C5       0.56447    0.46452    1.35535   1.00
H1       0.55451    0.46903    1.27747   1.00
H1       0.56132    0.51353    1.22230   1.00
H2       0.59152    0.48100    1.34837   1.00
H2       0.56028    0.46620    1.38747   1.00
N1       0.56868    0.42360    1.34395   1.00
C6       0.57757    0.41023    1.30810   1.00
C6       0.56473    0.39245    1.36757   1.00
C6       0.57915    0.37002    1.30873   1.00
C6       0.57098    0.35871    1.34656   1.00
H3       0.58267    0.42848    1.28281   1.00
H3       0.55759    0.39405    1.39831   1.00
H3       0.58560    0.35104    1.28436   1.00
H3       0.56975    0.32919    1.35758   1.00
H2       0.43403    0.48643    1.11228   1.00
H2       0.41736    0.45438    1.15001   1.00
N1       0.39802    0.51236    1.15523   1.00
C6       0.37876    0.53967    1.13078   1.00
C6       0.38157    0.51786    1.19285   1.00
C6       0.35219    0.56049    1.15277   1.00
C6       0.35392    0.54711    1.19091   1.00
H3       0.38429    0.54343    1.09992   1.00
H3       0.38989    0.50182    1.21876   1.00
H3       0.33331    0.58337    1.14205   1.00
H3       0.33667    0.55780    1.21505   1.00
C4       0.49962    0.72915    0.99994   1.00
C4       0.50038    0.77085    1.00006   1.00
C3       0.49231    0.70751    0.96552   1.00
C3       0.51729    0.79252    0.96927   1.00
C3       0.50703    0.70738    1.03425   1.00
C3       0.48335    0.79259    1.03078   1.00
C2       0.50003    0.64482    0.99984   1.00
C2       0.50003    0.85518    0.99984   1.00
C3a      0.49247    0.66599    0.96532   1.00
C3       0.51710    0.83382    0.96924   1.00
C3       0.50722    0.66611    1.03414   1.00
C3a      0.48309    0.83403    1.03086   1.00
H1       0.48614    0.72294    0.93866   1.00
H1       0.53112    0.77750    0.94516   1.00
C5       0.48437    0.64410    0.92813   1.00
H1       0.53039    0.84933    0.94514   1.00
H1       0.51331    0.65056    1.06095   1.00
C5       0.46452    0.85535    1.06447   1.00
H1       0.46903    0.77747    1.05451   1.00
H1       0.51353    0.72230    1.06132   1.00
H2       0.48100    0.84837    1.09152   1.00
H2       0.46620    0.88747    1.06028   1.00
N1       0.42360    0.84395    1.06868   1.00
C6       0.41023    0.80810    1.07757   1.00
C6       0.39245    0.86757    1.06473   1.00
C6       0.37002    0.80873    1.07915   1.00
C6       0.35871    0.84656    1.07098   1.00
H3       0.42848    0.78281    1.08267   1.00
H3       0.39405    0.89831    1.05759   1.00
H3       0.35104    0.78436    1.08560   1.00
H3       0.32919    0.85758    1.06975   1.00
H2       0.48643    0.61228    0.93403   1.00
H2       0.45438    0.65001    0.91736   1.00
N1       0.51236    0.65523    0.89802   1.00
C6       0.53967    0.63078    0.87876   1.00
C6       0.51786    0.69285    0.88157   1.00
C6       0.56049    0.65277    0.85219   1.00
C6       0.54711    0.69091    0.85392   1.00
H3       0.54343    0.59992    0.88429   1.00
H3       0.50182    0.71876    0.88989   1.00
H3       0.58337    0.64205    0.83331   1.00
H3       0.55780    0.71505    0.83667   1.00
C4       0.27085    0.49994    1.00038   1.00
C4       0.22915    0.50006    0.99962   1.00
C3       0.29249    0.46552    1.00769   1.00
C3       0.20748    0.46927    0.98271   1.00
C3       0.29262    0.53425    0.99297   1.00
C3       0.20741    0.53078    1.01665   1.00
C2       0.35518    0.49984    0.99997   1.00
C2       0.14482    0.49984    0.99997   1.00
C3a      0.33401    0.46532    1.00753   1.00
C3       0.16618    0.46924    0.98290   1.00
C3       0.33389    0.53414    0.99278   1.00
C3a      0.16597    0.53086    1.01691   1.00
H1       0.27706    0.43866    1.01386   1.00
H1       0.22250    0.44516    0.96888   1.00
C5       0.35590    0.42813    1.01563   1.00
H1       0.15067    0.44514    0.96961   1.00
H1       0.34944    0.56095    0.98669   1.00
C5       0.14465    0.56447    1.03548   1.00
H1       0.22253    0.55451    1.03097   1.00
H1       0.27770    0.56132    0.98647   1.00
H2       0.15163    0.59152    1.01900   1.00
H2       0.11253    0.56028    1.03380   1.00
N1       0.15605    0.56868    1.07640   1.00
C6       0.19190    0.57757    1.08977   1.00
C6       0.13243    0.56473    1.10755   1.00
C6       0.19127    0.57915    1.12998   1.00
C6       0.15344    0.57098    1.14129   1.00
H3       0.21719    0.58267    1.07152   1.00
H3       0.10169    0.55759    1.10595   1.00
H3       0.21564    0.58560    1.14896   1.00
H3       0.14242    0.56975    1.17081   1.00
H2       0.38772    0.43403    1.01357   1.00
H2       0.34999    0.41736    1.04562   1.00
N1       0.34477    0.39802    0.98764   1.00
C6       0.36922    0.37876    0.96033   1.00
C6       0.30715    0.38157    0.98214   1.00
C6       0.34723    0.35219    0.93951   1.00
C6       0.30909    0.35392    0.95289   1.00
H3       0.40008    0.38429    0.95657   1.00
H3       0.28124    0.38989    0.99818   1.00
H3       0.35795    0.33331    0.91663   1.00
H3       0.28495    0.33667    0.94220   1.00
C4       0.72915    0.49994    0.99962   1.00
C4       0.77085    0.50006    1.00038   1.00
C3       0.70751    0.46552    0.99231   1.00
C3       0.79252    0.46927    1.01729   1.00
C3       0.70738    0.53425    1.00703   1.00
C3       0.79259    0.53078    0.98335   1.00
C2       0.64482    0.49984    1.00003   1.00
C2       0.85518    0.49984    1.00003   1.00
C3a      0.66599    0.46532    0.99247   1.00
C3       0.83382    0.46924    1.01710   1.00
C3       0.66611    0.53414    1.00722   1.00
C3a      0.83403    0.53086    0.98309   1.00
H1       0.72294    0.43866    0.98614   1.00
H1       0.77750    0.44516    1.03112   1.00
C5       0.64410    0.42813    0.98437   1.00
H1       0.84933    0.44514    1.03039   1.00
H1       0.65056    0.56095    1.01331   1.00
C5       0.85535    0.56447    0.96452   1.00
H1       0.77747    0.55451    0.96903   1.00
H1       0.72230    0.56132    1.01353   1.00
H2       0.84837    0.59152    0.98100   1.00
H2       0.88747    0.56028    0.96620   1.00
N1       0.84395    0.56868    0.92360   1.00
C6       0.80810    0.57757    0.91023   1.00
C6       0.86757    0.56473    0.89245   1.00
C6       0.80873    0.57915    0.87002   1.00
C6       0.84656    0.57098    0.85871   1.00
H3       0.78281    0.58267    0.92848   1.00
H3       0.89831    0.55759    0.89405   1.00
H3       0.78436    0.58560    0.85104   1.00
H3       0.85758    0.56975    0.82919   1.00
H2       0.61228    0.43403    0.98643   1.00
H2       0.65001    0.41736    0.95438   1.00
N1       0.65523    0.39802    1.01236   1.00
C6       0.63078    0.37876    1.03967   1.00
C6       0.69285    0.38157    1.01786   1.00
C6       0.65277    0.35219    1.06049   1.00
C6       0.69091    0.35392    1.04711   1.00
H3       0.59992    0.38429    1.04343   1.00
H3       0.71876    0.38989    1.00182   1.00
H3       0.64205    0.33331    1.08337   1.00
H3       0.71505    0.33667    1.05780   1.00
C4       0.50038    0.27085    0.99994   1.00
C4       0.49962    0.22915    1.00006   1.00
C3       0.50769    0.29249    0.96552   1.00
C3       0.48271    0.20748    0.96927   1.00
C3       0.49297    0.29262    1.03425   1.00
C3       0.51665    0.20741    1.03078   1.00
C2       0.49997    0.35518    0.99984   1.00
C2       0.49997    0.14482    0.99984   1.00
C3a      0.50753    0.33401    0.96532   1.00
C3       0.48290    0.16618    0.96924   1.00
C3       0.49278    0.33389    1.03414   1.00
C3a      0.51691    0.16597    1.03086   1.00
H1       0.51386    0.27706    0.93866   1.00
H1       0.46888    0.22250    0.94516   1.00
C5       0.51563    0.35590    0.92813   1.00
H1       0.46961    0.15067    0.94514   1.00
H1       0.48669    0.34944    1.06095   1.00
C5       0.53548    0.14465    1.06447   1.00
H1       0.53097    0.22253    1.05451   1.00
H1       0.48647    0.27770    1.06132   1.00
H2       0.51900    0.15163    1.09152   1.00
H2       0.53380    0.11253    1.06028   1.00
N1       0.57640    0.15605    1.06868   1.00
C6       0.58977    0.19190    1.07757   1.00
C6       0.60755    0.13243    1.06473   1.00
C6       0.62998    0.19127    1.07915   1.00
C6       0.64129    0.15344    1.07098   1.00
H3       0.57152    0.21719    1.08267   1.00
H3       0.60595    0.10169    1.05759   1.00
H3       0.64896    0.21564    1.08560   1.00
H3       0.67081    0.14242    1.06975   1.00
H2       0.51357    0.38772    0.93403   1.00
H2       0.54562    0.34999    0.91736   1.00
N1       0.48764    0.34477    0.89802   1.00
C6       0.46033    0.36922    0.87876   1.00
C6       0.48214    0.30715    0.88157   1.00
C6       0.43951    0.34723    0.85219   1.00
C6       0.45289    0.30909    0.85392   1.00
H3       0.45657    0.40008    0.88429   1.00
H3       0.49818    0.28124    0.88989   1.00
H3       0.41663    0.35795    0.83331   1.00
H3       0.44220    0.28495    0.83667   1.00
C4       0.49994    0.50038    0.77085   1.00
C4       0.50006    0.49962    0.72915   1.00
C3       0.46552    0.50769    0.79249   1.00
C3       0.46927    0.48271    0.70748   1.00
C3       0.53425    0.49297    0.79262   1.00
C3       0.53078    0.51665    0.70741   1.00
C2       0.49984    0.49997    0.85518   1.00
C2       0.49984    0.49997    0.64482   1.00
C3a      0.46532    0.50753    0.83401   1.00
C3       0.46924    0.48290    0.66618   1.00
C3       0.53414    0.49278    0.83389   1.00
C3a      0.53086    0.51691    0.66597   1.00
H1       0.43866    0.51386    0.77706   1.00
H1       0.44516    0.46888    0.72250   1.00
C5       0.42813    0.51563    0.85590   1.00
H1       0.44514    0.46961    0.65067   1.00
H1       0.56095    0.48669    0.84944   1.00
C5       0.56447    0.53548    0.64465   1.00
H1       0.55451    0.53097    0.72253   1.00
H1       0.56132    0.48647    0.77770   1.00
H2       0.59152    0.51900    0.65163   1.00
H2       0.56028    0.53380    0.61253   1.00
N1       0.56868    0.57640    0.65605   1.00
C6       0.57757    0.58977    0.69190   1.00
C6       0.56473    0.60755    0.63243   1.00
C6       0.57915    0.62998    0.69127   1.00
C6       0.57098    0.64129    0.65344   1.00
H3       0.58267    0.57152    0.71719   1.00
H3       0.55759    0.60595    0.60169   1.00
H3       0.58560    0.64896    0.71564   1.00
H3       0.56975    0.67081    0.64242   1.00
H2       0.43403    0.51357    0.88772   1.00
H2       0.41736    0.54562    0.84999   1.00
N1       0.39802    0.48764    0.84477   1.00
C6       0.37876    0.46033    0.86922   1.00
C6       0.38157    0.48214    0.80715   1.00
C6       0.35219    0.43951    0.84723   1.00
C6       0.35392    0.45289    0.80909   1.00
H3       0.38429    0.45657    0.90008   1.00
H3       0.38989    0.49818    0.78124   1.00
H3       0.33331    0.41663    0.85795   1.00
H3       0.33667    0.44220    0.78495   1.00
C4       0.49994    0.99962    0.72915   1.00
C4       0.50006    1.00038    0.77085   1.00
C3       0.46552    0.99231    0.70751   1.00
C3       0.46927    1.01729    0.79252   1.00
C3       0.53425    1.00703    0.70738   1.00
C3       0.53078    0.98335    0.79259   1.00
C2       0.49984    1.00003    0.64482   1.00
C2       0.49984    1.00003    0.85518   1.00
C3a      0.46532    0.99247    0.66599   1.00
C3       0.46924    1.01710    0.83382   1.00
C3       0.53414    1.00722    0.66611   1.00
C3a      0.53086    0.98309    0.83403   1.00
H1       0.43866    0.98614    0.72294   1.00
H1       0.44516    1.03112    0.77750   1.00
C5       0.42813    0.98437    0.64410   1.00
H1       0.44514    1.03039    0.84933   1.00
H1       0.56095    1.01331    0.65056   1.00
C5       0.56447    0.96452    0.85535   1.00
H1       0.55451    0.96903    0.77747   1.00
H1       0.56132    1.01353    0.72230   1.00
H2       0.59152    0.98100    0.84837   1.00
H2       0.56028    0.96620    0.88747   1.00
N1       0.56868    0.92360    0.84395   1.00
C6       0.57757    0.91023    0.80810   1.00
C6       0.56473    0.89245    0.86757   1.00
C6       0.57915    0.87002    0.80873   1.00
C6       0.57098    0.85871    0.84656   1.00
H3       0.58267    0.92848    0.78281   1.00
H3       0.55759    0.89405    0.89831   1.00
H3       0.58560    0.85104    0.78436   1.00
H3       0.56975    0.82919    0.85758   1.00
H2       0.43403    0.98643    0.61228   1.00
H2       0.41736    0.95438    0.65001   1.00
N1       0.39802    1.01236    0.65523   1.00
C6       0.37876    1.03967    0.63078   1.00
C6       0.38157    1.01786    0.69285   1.00
C6       0.35219    1.06049    0.65277   1.00
C6       0.35392    1.04711    0.69091   1.00
H3       0.38429    1.04343    0.59992   1.00
H3       0.38989    1.00182    0.71876   1.00
H3       0.33331    1.08337    0.64205   1.00
H3       0.33667    1.05780    0.71505   1.00
C4       0.49962    1.22915    0.49994   1.00
C4       0.50038    1.27085    0.50006   1.00
C3       0.49231    1.20751    0.46552   1.00
C3       0.51729    1.29252    0.46927   1.00
C3       0.50703    1.20738    0.53425   1.00
C3       0.48335    1.29259    0.53078   1.00
C2       0.50003    1.14482    0.49984   1.00
C2       0.50003    1.35518    0.49984   1.00
C3a      0.49247    1.16599    0.46532   1.00
C3       0.51710    1.33382    0.46924   1.00
C3       0.50722    1.16611    0.53414   1.00
C3a      0.48309    1.33403    0.53086   1.00
H1       0.48614    1.22294    0.43866   1.00
H1       0.53112    1.27750    0.44516   1.00
C5       0.48437    1.14410    0.42813   1.00
H1       0.53039    1.34933    0.44514   1.00
H1       0.51331    1.15056    0.56095   1.00
C5       0.46452    1.35535    0.56447   1.00
H1       0.46903    1.27747    0.55451   1.00
H1       0.51353    1.22230    0.56132   1.00
H2       0.48100    1.34837    0.59152   1.00
H2       0.46620    1.38747    0.56028   1.00
N1       0.42360    1.34395    0.56868   1.00
C6       0.41023    1.30810    0.57757   1.00
C6       0.39245    1.36757    0.56473   1.00
C6       0.37002    1.30873    0.57915   1.00
C6       0.35871    1.34656    0.57098   1.00
H3       0.42848    1.28281    0.58267   1.00
H3       0.39405    1.39831    0.55759   1.00
H3       0.35104    1.28436    0.58560   1.00
H3       0.32919    1.35758    0.56975   1.00
H2       0.48643    1.11228    0.43403   1.00
H2       0.45438    1.15001    0.41736   1.00
N1       0.51236    1.15523    0.39802   1.00
C6       0.53967    1.13078    0.37876   1.00
C6       0.51786    1.19285    0.38157   1.00
C6       0.56049    1.15277    0.35219   1.00
C6       0.54711    1.19091    0.35392   1.00
H3       0.54343    1.09992    0.38429   1.00
H3       0.50182    1.21876    0.38989   1.00
H3       0.58337    1.14205    0.33331   1.00
H3       0.55780    1.21505    0.33667   1.00
C4       0.27085    0.99994    0.50038   1.00
C4       0.22915    1.00006    0.49962   1.00
C3       0.29249    0.96552    0.50769   1.00
C3       0.20748    0.96927    0.48271   1.00
C3       0.29262    1.03425    0.49297   1.00
C3       0.20741    1.03078    0.51665   1.00
C2       0.35518    0.99984    0.49997   1.00
C2       0.14482    0.99984    0.49997   1.00
C3a      0.33401    0.96532    0.50753   1.00
C3       0.16618    0.96924    0.48290   1.00
C3       0.33389    1.03414    0.49278   1.00
C3a      0.16597    1.03086    0.51691   1.00
H1       0.27706    0.93866    0.51386   1.00
H1       0.22250    0.94516    0.46888   1.00
C5       0.35590    0.92813    0.51563   1.00
H1       0.15067    0.94514    0.46961   1.00
H1       0.34944    1.06095    0.48669   1.00
C5       0.14465    1.06447    0.53548   1.00
H1       0.22253    1.05451    0.53097   1.00
H1       0.27770    1.06132    0.48647   1.00
H2       0.15163    1.09152    0.51900   1.00
H2       0.11253    1.06028    0.53380   1.00
N1       0.15605    1.06868    0.57640   1.00
C6       0.19190    1.07757    0.58977   1.00
C6       0.13243    1.06473    0.60755   1.00
C6       0.19127    1.07915    0.62998   1.00
C6       0.15344    1.07098    0.64129   1.00
H3       0.21719    1.08267    0.57152   1.00
H3       0.10169    1.05759    0.60595   1.00
H3       0.21564    1.08560    0.64896   1.00
H3       0.14242    1.06975    0.67081   1.00
H2       0.38772    0.93403    0.51357   1.00
H2       0.34999    0.91736    0.54562   1.00
N1       0.34477    0.89802    0.48764   1.00
C6       0.36922    0.87876    0.46033   1.00
C6       0.30715    0.88157    0.48214   1.00
C6       0.34723    0.85219    0.43951   1.00
C6       0.30909    0.85392    0.45289   1.00
H3       0.40008    0.88429    0.45657   1.00
H3       0.28124    0.88989    0.49818   1.00
H3       0.35795    0.83331    0.41663   1.00
H3       0.28495    0.83667    0.44220   1.00
C4       0.72915    0.99994    0.49962   1.00
C4       0.77085    1.00006    0.50038   1.00
C3       0.70751    0.96552    0.49231   1.00
C3       0.79252    0.96927    0.51729   1.00
C3       0.70738    1.03425    0.50703   1.00
C3       0.79259    1.03078    0.48335   1.00
C2       0.64482    0.99984    0.50003   1.00
C2       0.85518    0.99984    0.50003   1.00
C3a      0.66599    0.96532    0.49247   1.00
C3       0.83382    0.96924    0.51710   1.00
C3       0.66611    1.03414    0.50722   1.00
C3a      0.83403    1.03086    0.48309   1.00
H1       0.72294    0.93866    0.48614   1.00
H1       0.77750    0.94516    0.53112   1.00
C5       0.64410    0.92813    0.48437   1.00
H1       0.84933    0.94514    0.53039   1.00
H1       0.65056    1.06095    0.51331   1.00
C5       0.85535    1.06447    0.46452   1.00
H1       0.77747    1.05451    0.46903   1.00
H1       0.72230    1.06132    0.51353   1.00
H2       0.84837    1.09152    0.48100   1.00
H2       0.88747    1.06028    0.46620   1.00
N1       0.84395    1.06868    0.42360   1.00
C6       0.80810    1.07757    0.41023   1.00
C6       0.86757    1.06473    0.39245   1.00
C6       0.80873    1.07915    0.37002   1.00
C6       0.84656    1.07098    0.35871   1.00
H3       0.78281    1.08267    0.42848   1.00
H3       0.89831    1.05759    0.39405   1.00
H3       0.78436    1.08560    0.35104   1.00
H3       0.85758    1.06975    0.32919   1.00
H2       0.61228    0.93403    0.48643   1.00
H2       0.65001    0.91736    0.45438   1.00
N1       0.65523    0.89802    0.51236   1.00
C6       0.63078    0.87876    0.53967   1.00
C6       0.69285    0.88157    0.51786   1.00
C6       0.65277    0.85219    0.56049   1.00
C6       0.69091    0.85392    0.54711   1.00
H3       0.59992    0.88429    0.54343   1.00
H3       0.71876    0.88989    0.50182   1.00
H3       0.64205    0.83331    0.58337   1.00
H3       0.71505    0.83667    0.55780   1.00
C4       0.50038    0.77085    0.49994   1.00
C4       0.49962    0.72915    0.50006   1.00
C3       0.50769    0.79249    0.46552   1.00
C3       0.48271    0.70748    0.46927   1.00
C3       0.49297    0.79262    0.53425   1.00
C3       0.51665    0.70741    0.53078   1.00
C2       0.49997    0.85518    0.49984   1.00
C2       0.49997    0.64482    0.49984   1.00
C3a      0.50753    0.83401    0.46532   1.00
C3       0.48290    0.66618    0.46924   1.00
C3       0.49278    0.83389    0.53414   1.00
C3a      0.51691    0.66597    0.53086   1.00
H1       0.51386    0.77706    0.43866   1.00
H1       0.46888    0.72250    0.44516   1.00
C5       0.51563    0.85590    0.42813   1.00
H1       0.46961    0.65067    0.44514   1.00
H1       0.48669    0.84944    0.56095   1.00
C5       0.53548    0.64465    0.56447   1.00
H1       0.53097    0.72253    0.55451   1.00
H1       0.48647    0.77770    0.56132   1.00
H2       0.51900    0.65163    0.59152   1.00
H2       0.53380    0.61253    0.56028   1.00
N1       0.57640    0.65605    0.56868   1.00
C6       0.58977    0.69190    0.57757   1.00
C6       0.60755    0.63243    0.56473   1.00
C6       0.62998    0.69127    0.57915   1.00
C6       0.64129    0.65344    0.57098   1.00
H3       0.57152    0.71719    0.58267   1.00
H3       0.60595    0.60169    0.55759   1.00
H3       0.64896    0.71564    0.58560   1.00
H3       0.67081    0.64242    0.56975   1.00
H2       0.51357    0.88772    0.43403   1.00
H2       0.54562    0.84999    0.41736   1.00
N1       0.48764    0.84477    0.39802   1.00
C6       0.46033    0.86922    0.37876   1.00
C6       0.48214    0.80715    0.38157   1.00
C6       0.43951    0.84723    0.35219   1.00
C6       0.45289    0.80909    0.35392   1.00
H3       0.45657    0.90008    0.38429   1.00
H3       0.49818    0.78124    0.38989   1.00
H3       0.41663    0.85795    0.33331   1.00
H3       0.44220    0.78495    0.33667   1.00
C4       0.49994    1.00038    0.27085   1.00
C4       0.50006    0.99962    0.22915   1.00
C3       0.46552    1.00769    0.29249   1.00
C3       0.46927    0.98271    0.20748   1.00
C3       0.53425    0.99297    0.29262   1.00
C3       0.53078    1.01665    0.20741   1.00
C2       0.49984    0.99997    0.35518   1.00
C2       0.49984    0.99997    0.14482   1.00
C3a      0.46532    1.00753    0.33401   1.00
C3       0.46924    0.98290    0.16618   1.00
C3       0.53414    0.99278    0.33389   1.00
C3a      0.53086    1.01691    0.16597   1.00
H1       0.43866    1.01386    0.27706   1.00
H1       0.44516    0.96888    0.22250   1.00
C5       0.42813    1.01563    0.35590   1.00
H1       0.44514    0.96961    0.15067   1.00
H1       0.56095    0.98669    0.34944   1.00
C5       0.56447    1.03548    0.14465   1.00
H1       0.55451    1.03097    0.22253   1.00
H1       0.56132    0.98647    0.27770   1.00
H2       0.59152    1.01900    0.15163   1.00
H2       0.56028    1.03380    0.11253   1.00
N1       0.56868    1.07640    0.15605   1.00
C6       0.57757    1.08977    0.19190   1.00
C6       0.56473    1.10755    0.13243   1.00
C6       0.57915    1.12998    0.19127   1.00
C6       0.57098    1.14129    0.15344   1.00
H3       0.58267    1.07152    0.21719   1.00
H3       0.55759    1.10595    0.10169   1.00
H3       0.58560    1.14896    0.21564   1.00
H3       0.56975    1.17081    0.14242   1.00
H2       0.43403    1.01357    0.38772   1.00
H2       0.41736    1.04562    0.34999   1.00
N1       0.39802    0.98764    0.34477   1.00
C6       0.37876    0.96033    0.36922   1.00
C6       0.38157    0.98214    0.30715   1.00
C6       0.35219    0.93951    0.34723   1.00
C6       0.35392    0.95289    0.30909   1.00
H3       0.38429    0.95657    0.40008   1.00
H3       0.38989    0.99818    0.28124   1.00
H3       0.33331    0.91663    0.35795   1.00
H3       0.33667    0.94220    0.28495   1.00
C4       0.99994    0.49962    0.72915   1.00
C4       1.00006    0.50038    0.77085   1.00
C3       0.96552    0.49231    0.70751   1.00
C3       0.96927    0.51729    0.79252   1.00
C3       1.03425    0.50703    0.70738   1.00
C3       1.03078    0.48335    0.79259   1.00
C2       0.99984    0.50003    0.64482   1.00
C2       0.99984    0.50003    0.85518   1.00
C3a      0.96532    0.49247    0.66599   1.00
C3       0.96924    0.51710    0.83382   1.00
C3       1.03414    0.50722    0.66611   1.00
C3a      1.03086    0.48309    0.83403   1.00
H1       0.93866    0.48614    0.72294   1.00
H1       0.94516    0.53112    0.77750   1.00
C5       0.92813    0.48437    0.64410   1.00
H1       0.94514    0.53039    0.84933   1.00
H1       1.06095    0.51331    0.65056   1.00
C5       1.06447    0.46452    0.85535   1.00
H1       1.05451    0.46903    0.77747   1.00
H1       1.06132    0.51353    0.72230   1.00
H2       1.09152    0.48100    0.84837   1.00
H2       1.06028    0.46620    0.88747   1.00
N1       1.06868    0.42360    0.84395   1.00
C6       1.07757    0.41023    0.80810   1.00
C6       1.06473    0.39245    0.86757   1.00
C6       1.07915    0.37002    0.80873   1.00
C6       1.07098    0.35871    0.84656   1.00
H3       1.08267    0.42848    0.78281   1.00
H3       1.05759    0.39405    0.89831   1.00
H3       1.08560    0.35104    0.78436   1.00
H3       1.06975    0.32919    0.85758   1.00
H2       0.93403    0.48643    0.61228   1.00
H2       0.91736    0.45438    0.65001   1.00
N1       0.89802    0.51236    0.65523   1.00
C6       0.87876    0.53967    0.63078   1.00
C6       0.88157    0.51786    0.69285   1.00
C6       0.85219    0.56049    0.65277   1.00
C6       0.85392    0.54711    0.69091   1.00
H3       0.88429    0.54343    0.59992   1.00
H3       0.88989    0.50182    0.71876   1.00
H3       0.83331    0.58337    0.64205   1.00
H3       0.83667    0.55780    0.71505   1.00
C4       0.99962    0.72915    0.49994   1.00
C4       1.00038    0.77085    0.50006   1.00
C3       0.99231    0.70751    0.46552   1.00
C3       1.01729    0.79252    0.46927   1.00
C3       1.00703    0.70738    0.53425   1.00
C3       0.98335    0.79259    0.53078   1.00
C2       1.00003    0.64482    0.49984   1.00
C2       1.00003    0.85518    0.49984   1.00
C3a      0.99247    0.66599    0.46532   1.00
C3       1.01710    0.83382    0.46924   1.00
C3       1.00722    0.66611    0.53414   1.00
C3a      0.98309    0.83403    0.53086   1.00
H1       0.98614    0.72294    0.43866   1.00
H1       1.03112    0.77750    0.44516   1.00
C5       0.98437    0.64410    0.42813   1.00
H1       1.03039    0.84933    0.44514   1.00
H1       1.01331    0.65056    0.56095   1.00
C5       0.96452    0.85535    0.56447   1.00
H1       0.96903    0.77747    0.55451   1.00
H1       1.01353    0.72230    0.56132   1.00
H2       0.98100    0.84837    0.59152   1.00
H2       0.96620    0.88747    0.56028   1.00
N1       0.92360    0.84395    0.56868   1.00
C6       0.91023    0.80810    0.57757   1.00
C6       0.89245    0.86757    0.56473   1.00
C6       0.87002    0.80873    0.57915   1.00
C6       0.85871    0.84656    0.57098   1.00
H3       0.92848    0.78281    0.58267   1.00
H3       0.89405    0.89831    0.55759   1.00
H3       0.85104    0.78436    0.58560   1.00
H3       0.82919    0.85758    0.56975   1.00
H2       0.98643    0.61228    0.43403   1.00
H2       0.95438    0.65001    0.41736   1.00
N1       1.01236    0.65523    0.39802   1.00
C6       1.03967    0.63078    0.37876   1.00
C6       1.01786    0.69285    0.38157   1.00
C6       1.06049    0.65277    0.35219   1.00
C6       1.04711    0.69091    0.35392   1.00
H3       1.04343    0.59992    0.38429   1.00
H3       1.00182    0.71876    0.38989   1.00
H3       1.08337    0.64205    0.33331   1.00
H3       1.05780    0.71505    0.33667   1.00
C4       0.77085    0.49994    0.50038   1.00
C4       0.72915    0.50006    0.49962   1.00
C3       0.79249    0.46552    0.50769   1.00
C3       0.70748    0.46927    0.48271   1.00
C3       0.79262    0.53425    0.49297   1.00
C3       0.70741    0.53078    0.51665   1.00
C2       0.85518    0.49984    0.49997   1.00
C2       0.64482    0.49984    0.49997   1.00
C3a      0.83401    0.46532    0.50753   1.00
C3       0.66618    0.46924    0.48290   1.00
C3       0.83389    0.53414    0.49278   1.00
C3a      0.66597    0.53086    0.51691   1.00
H1       0.77706    0.43866    0.51386   1.00
H1       0.72250    0.44516    0.46888   1.00
C5       0.85590    0.42813    0.51563   1.00
H1       0.65067    0.44514    0.46961   1.00
H1       0.84944    0.56095    0.48669   1.00
C5       0.64465    0.56447    0.53548   1.00
H1       0.72253    0.55451    0.53097   1.00
H1       0.77770    0.56132    0.48647   1.00
H2       0.65163    0.59152    0.51900   1.00
H2       0.61253    0.56028    0.53380   1.00
N1       0.65605    0.56868    0.57640   1.00
C6       0.69190    0.57757    0.58977   1.00
C6       0.63243    0.56473    0.60755   1.00
C6       0.69127    0.57915    0.62998   1.00
C6       0.65344    0.57098    0.64129   1.00
H3       0.71719    0.58267    0.57152   1.00
H3       0.60169    0.55759    0.60595   1.00
H3       0.71564    0.58560    0.64896   1.00
H3       0.64242    0.56975    0.67081   1.00
H2       0.88772    0.43403    0.51357   1.00
H2       0.84999    0.41736    0.54562   1.00
N1       0.84477    0.39802    0.48764   1.00
C6       0.86922    0.37876    0.46033   1.00
C6       0.80715    0.38157    0.48214   1.00
C6       0.84723    0.35219    0.43951   1.00
C6       0.80909    0.35392    0.45289   1.00
H3       0.90008    0.38429    0.45657   1.00
H3       0.78124    0.38989    0.49818   1.00
H3       0.85795    0.33331    0.41663   1.00
H3       0.78495    0.33667    0.44220   1.00
C4       1.22915    0.49994    0.49962   1.00
C4       1.27085    0.50006    0.50038   1.00
C3       1.20751    0.46552    0.49231   1.00
C3       1.29252    0.46927    0.51729   1.00
C3       1.20738    0.53425    0.50703   1.00
C3       1.29259    0.53078    0.48335   1.00
C2       1.14482    0.49984    0.50003   1.00
C2       1.35518    0.49984    0.50003   1.00
C3a      1.16599    0.46532    0.49247   1.00
C3       1.33382    0.46924    0.51710   1.00
C3       1.16611    0.53414    0.50722   1.00
C3a      1.33403    0.53086    0.48309   1.00
H1       1.22294    0.43866    0.48614   1.00
H1       1.27750    0.44516    0.53112   1.00
C5       1.14410    0.42813    0.48437   1.00
H1       1.34933    0.44514    0.53039   1.00
H1       1.15056    0.56095    0.51331   1.00
C5       1.35535    0.56447    0.46452   1.00
H1       1.27747    0.55451    0.46903   1.00
H1       1.22230    0.56132    0.51353   1.00
H2       1.34837    0.59152    0.48100   1.00
H2       1.38747    0.56028    0.46620   1.00
N1       1.34395    0.56868    0.42360   1.00
C6       1.30810    0.57757    0.41023   1.00
C6       1.36757    0.56473    0.39245   1.00
C6       1.30873    0.57915    0.37002   1.00
C6       1.34656    0.57098    0.35871   1.00
H3       1.28281    0.58267    0.42848   1.00
H3       1.39831    0.55759    0.39405   1.00
H3       1.28436    0.58560    0.35104   1.00
H3       1.35758    0.56975    0.32919   1.00
H2       1.11228    0.43403    0.48643   1.00
H2       1.15001    0.41736    0.45438   1.00
N1       1.15523    0.39802    0.51236   1.00
C6       1.13078    0.37876    0.53967   1.00
C6       1.19285    0.38157    0.51786   1.00
C6       1.15277    0.35219    0.56049   1.00
C6       1.19091    0.35392    0.54711   1.00
H3       1.09992    0.38429    0.54343   1.00
H3       1.21876    0.38989    0.50182   1.00
H3       1.14205    0.33331    0.58337   1.00
H3       1.21505    0.33667    0.55780   1.00
C4       1.00038    0.27085    0.49994   1.00
C4       0.99962    0.22915    0.50006   1.00
C3       1.00769    0.29249    0.46552   1.00
C3       0.98271    0.20748    0.46927   1.00
C3       0.99297    0.29262    0.53425   1.00
C3       1.01665    0.20741    0.53078   1.00
C2       0.99997    0.35518    0.49984   1.00
C2       0.99997    0.14482    0.49984   1.00
C3a      1.00753    0.33401    0.46532   1.00
C3       0.98290    0.16618    0.46924   1.00
C3       0.99278    0.33389    0.53414   1.00
C3a      1.01691    0.16597    0.53086   1.00
H1       1.01386    0.27706    0.43866   1.00
H1       0.96888    0.22250    0.44516   1.00
C5       1.01563    0.35590    0.42813   1.00
H1       0.96961    0.15067    0.44514   1.00
H1       0.98669    0.34944    0.56095   1.00
C5       1.03548    0.14465    0.56447   1.00
H1       1.03097    0.22253    0.55451   1.00
H1       0.98647    0.27770    0.56132   1.00
H2       1.01900    0.15163    0.59152   1.00
H2       1.03380    0.11253    0.56028   1.00
N1       1.07640    0.15605    0.56868   1.00
C6       1.08977    0.19190    0.57757   1.00
C6       1.10755    0.13243    0.56473   1.00
C6       1.12998    0.19127    0.57915   1.00
C6       1.14129    0.15344    0.57098   1.00
H3       1.07152    0.21719    0.58267   1.00
H3       1.10595    0.10169    0.55759   1.00
H3       1.14896    0.21564    0.58560   1.00
H3       1.17081    0.14242    0.56975   1.00
H2       1.01357    0.38772    0.43403   1.00
H2       1.04562    0.34999    0.41736   1.00
N1       0.98764    0.34477    0.39802   1.00
C6       0.96033    0.36922    0.37876   1.00
C6       0.98214    0.30715    0.38157   1.00
C6       0.93951    0.34723    0.35219   1.00
C6       0.95289    0.30909    0.35392   1.00
H3       0.95657    0.40008    0.38429   1.00
H3       0.99818    0.28124    0.38989   1.00
H3       0.91663    0.35795    0.33331   1.00
H3       0.94220    0.28495    0.33667   1.00
C4       0.99994    0.50038    0.27085   1.00
C4       1.00006    0.49962    0.22915   1.00
C3       0.96552    0.50769    0.29249   1.00
C3       0.96927    0.48271    0.20748   1.00
C3       1.03425    0.49297    0.29262   1.00
C3       1.03078    0.51665    0.20741   1.00
C2       0.99984    0.49997    0.35518   1.00
C2       0.99984    0.49997    0.14482   1.00
C3a      0.96532    0.50753    0.33401   1.00
C3       0.96924    0.48290    0.16618   1.00
C3       1.03414    0.49278    0.33389   1.00
C3a      1.03086    0.51691    0.16597   1.00
H1       0.93866    0.51386    0.27706   1.00
H1       0.94516    0.46888    0.22250   1.00
C5       0.92813    0.51563    0.35590   1.00
H1       0.94514    0.46961    0.15067   1.00
H1       1.06095    0.48669    0.34944   1.00
C5       1.06447    0.53548    0.14465   1.00
H1       1.05451    0.53097    0.22253   1.00
H1       1.06132    0.48647    0.27770   1.00
H2       1.09152    0.51900    0.15163   1.00
H2       1.06028    0.53380    0.11253   1.00
N1       1.06868    0.57640    0.15605   1.00
C6       1.07757    0.58977    0.19190   1.00
C6       1.06473    0.60755    0.13243   1.00
C6       1.07915    0.62998    0.19127   1.00
C6       1.07098    0.64129    0.15344   1.00
H3       1.08267    0.57152    0.21719   1.00
H3       1.05759    0.60595    0.10169   1.00
H3       1.08560    0.64896    0.21564   1.00
H3       1.06975    0.67081    0.14242   1.00
H2       0.93403    0.51357    0.38772   1.00
H2       0.91736    0.54562    0.34999   1.00
N1       0.89802    0.48764    0.34477   1.00
C6       0.87876    0.46033    0.36922   1.00
C6       0.88157    0.48214    0.30715   1.00
C6       0.85219    0.43951    0.34723   1.00
C6       0.85392    0.45289    0.30909   1.00
H3       0.88429    0.45657    0.40008   1.00
H3       0.88989    0.49818    0.28124   1.00
H3       0.83331    0.41663    0.35795   1.00
H3       0.83667    0.44220    0.28495   1.00
