data_IRMOF10_SG202_interpen_Ligand11lp_label_s.

_audit_creation_method             'generated by an auxiliary program of Tobunporous'

_symmetry_space_group_name_H-M     'P 1'
_symmetry_Int_Tables_number        1
_symmetry_cell_setting             triclinic

_cell_length_a                    34.2800
_cell_length_b                    34.2800
_cell_length_c                    34.2800
_cell_angle_alpha                 90.0000
_cell_angle_beta                  90.0000
_cell_angle_gamma                 90.0000

loop_
_atom_site_label
_atom_site_fract_x
_atom_site_fract_y
_atom_site_fract_z
_atom_site_occupancy
O1       0.75000    0.75000    0.75000   1.00
Zn1      0.71720    0.78280    0.78280   1.00
Zn1      0.78280    0.71720    0.78280   1.00
Zn1      0.78280    0.78280    0.71720   1.00
Zn1      0.71720    0.71720    0.71720   1.00
O2       0.72650    0.77350    0.83820   1.00
O2       0.72650    0.83820    0.77350   1.00
O2       0.66180    0.77350    0.77350   1.00
O2       0.77350    0.72650    0.83820   1.00
O2       0.83820    0.72650    0.77350   1.00
O2       0.77350    0.66180    0.77350   1.00
O2       0.77350    0.83820    0.72650   1.00
O2       0.83820    0.77350    0.72650   1.00
O2       0.77350    0.77350    0.66180   1.00
O2       0.66180    0.72650    0.72650   1.00
O2       0.72650    0.66180    0.72650   1.00
O2       0.72650    0.72650    0.66180   1.00
C1       0.75000    0.75000    0.85520   1.00
C1       0.75000    0.85520    0.75000   1.00
C1       0.64480    0.75000    0.75000   1.00
C1       0.85520    0.75000    0.75000   1.00
C1       0.75000    0.64480    0.75000   1.00
C1       0.75000    0.75000    0.64480   1.00
O1       0.25000    0.25000    0.75000   1.00
Zn1      0.21720    0.28280    0.78280   1.00
Zn1      0.28280    0.21720    0.78280   1.00
Zn1      0.28280    0.28280    0.71720   1.00
Zn1      0.21720    0.21720    0.71720   1.00
O2       0.22650    0.27350    0.83820   1.00
O2       0.22650    0.33820    0.77350   1.00
O2       0.16180    0.27350    0.77350   1.00
O2       0.27350    0.22650    0.83820   1.00
O2       0.33820    0.22650    0.77350   1.00
O2       0.27350    0.16180    0.77350   1.00
O2       0.27350    0.33820    0.72650   1.00
O2       0.33820    0.27350    0.72650   1.00
O2       0.27350    0.27350    0.66180   1.00
O2       0.16180    0.22650    0.72650   1.00
O2       0.22650    0.16180    0.72650   1.00
O2       0.22650    0.22650    0.66180   1.00
C1       0.25000    0.25000    0.85520   1.00
C1       0.25000    0.35520    0.75000   1.00
C1       0.14480    0.25000    0.75000   1.00
C1       0.35520    0.25000    0.75000   1.00
C1       0.25000    0.14480    0.75000   1.00
C1       0.25000    0.25000    0.64480   1.00
O1       0.25000    0.75000    0.25000   1.00
Zn1      0.21720    0.78280    0.28280   1.00
Zn1      0.28280    0.71720    0.28280   1.00
Zn1      0.28280    0.78280    0.21720   1.00
Zn1      0.21720    0.71720    0.21720   1.00
O2       0.22650    0.77350    0.33820   1.00
O2       0.22650    0.83820    0.27350   1.00
O2       0.16180    0.77350    0.27350   1.00
O2       0.27350    0.72650    0.33820   1.00
O2       0.33820    0.72650    0.27350   1.00
O2       0.27350    0.66180    0.27350   1.00
O2       0.27350    0.83820    0.22650   1.00
O2       0.33820    0.77350    0.22650   1.00
O2       0.27350    0.77350    0.16180   1.00
O2       0.16180    0.72650    0.22650   1.00
O2       0.22650    0.66180    0.22650   1.00
O2       0.22650    0.72650    0.16180   1.00
C1       0.25000    0.75000    0.35520   1.00
C1       0.25000    0.85520    0.25000   1.00
C1       0.14480    0.75000    0.25000   1.00
C1       0.35520    0.75000    0.25000   1.00
C1       0.25000    0.64480    0.25000   1.00
C1       0.25000    0.75000    0.14480   1.00
O1       0.75000    0.25000    0.25000   1.00
Zn1      0.71720    0.28280    0.28280   1.00
Zn1      0.78280    0.21720    0.28280   1.00
Zn1      0.78280    0.28280    0.21720   1.00
Zn1      0.71720    0.21720    0.21720   1.00
O2       0.72650    0.27350    0.33820   1.00
O2       0.72650    0.33820    0.27350   1.00
O2       0.66180    0.27350    0.27350   1.00
O2       0.77350    0.22650    0.33820   1.00
O2       0.83820    0.22650    0.27350   1.00
O2       0.77350    0.16180    0.27350   1.00
O2       0.77350    0.33820    0.22650   1.00
O2       0.83820    0.27350    0.22650   1.00
O2       0.77350    0.27350    0.16180   1.00
O2       0.66180    0.22650    0.22650   1.00
O2       0.72650    0.16180    0.22650   1.00
O2       0.72650    0.22650    0.16180   1.00
C1       0.75000    0.25000    0.35520   1.00
C1       0.75000    0.35520    0.25000   1.00
C1       0.64480    0.25000    0.25000   1.00
C1       0.85520    0.25000    0.25000   1.00
C1       0.75000    0.14480    0.25000   1.00
C1       0.75000    0.25000    0.14480   1.00
O1       0.25000    0.25000    0.25000   1.00
Zn1      0.28280    0.21720    0.21720   1.00
Zn1      0.21720    0.28280    0.21720   1.00
Zn1      0.21720    0.21720    0.28280   1.00
Zn1      0.28280    0.28280    0.28280   1.00
O2       0.27350    0.22650    0.16180   1.00
O2       0.27350    0.16180    0.22650   1.00
O2       0.33820    0.22650    0.22650   1.00
O2       0.22650    0.27350    0.16180   1.00
O2       0.16180    0.27350    0.22650   1.00
O2       0.22650    0.33820    0.22650   1.00
O2       0.22650    0.16180    0.27350   1.00
O2       0.16180    0.22650    0.27350   1.00
O2       0.22650    0.22650    0.33820   1.00
O2       0.33820    0.27350    0.27350   1.00
O2       0.27350    0.33820    0.27350   1.00
O2       0.27350    0.27350    0.33820   1.00
C1       0.25000    0.25000    0.14480   1.00
C1       0.25000    0.14480    0.25000   1.00
C1       0.35520    0.25000    0.25000   1.00
C1       0.14480    0.25000    0.25000   1.00
C1       0.25000    0.35520    0.25000   1.00
C1       0.25000    0.25000    0.35520   1.00
O1       0.75000    0.75000    0.25000   1.00
Zn1      0.78280    0.71720    0.21720   1.00
Zn1      0.71720    0.78280    0.21720   1.00
Zn1      0.71720    0.71720    0.28280   1.00
Zn1      0.78280    0.78280    0.28280   1.00
O2       0.77350    0.72650    0.16180   1.00
O2       0.77350    0.66180    0.22650   1.00
O2       0.83820    0.72650    0.22650   1.00
O2       0.72650    0.77350    0.16180   1.00
O2       0.66180    0.77350    0.22650   1.00
O2       0.72650    0.83820    0.22650   1.00
O2       0.72650    0.66180    0.27350   1.00
O2       0.66180    0.72650    0.27350   1.00
O2       0.72650    0.72650    0.33820   1.00
O2       0.83820    0.77350    0.27350   1.00
O2       0.77350    0.83820    0.27350   1.00
O2       0.77350    0.77350    0.33820   1.00
C1       0.75000    0.75000    0.14480   1.00
C1       0.75000    0.64480    0.25000   1.00
C1       0.85520    0.75000    0.25000   1.00
C1       0.64480    0.75000    0.25000   1.00
C1       0.75000    0.85520    0.25000   1.00
C1       0.75000    0.75000    0.35520   1.00
O1       0.75000    0.25000    0.75000   1.00
Zn1      0.78280    0.21720    0.71720   1.00
Zn1      0.71720    0.28280    0.71720   1.00
Zn1      0.71720    0.21720    0.78280   1.00
Zn1      0.78280    0.28280    0.78280   1.00
O2       0.77350    0.22650    0.66180   1.00
O2       0.77350    0.16180    0.72650   1.00
O2       0.83820    0.22650    0.72650   1.00
O2       0.72650    0.27350    0.66180   1.00
O2       0.66180    0.27350    0.72650   1.00
O2       0.72650    0.33820    0.72650   1.00
O2       0.72650    0.16180    0.77350   1.00
O2       0.66180    0.22650    0.77350   1.00
O2       0.72650    0.22650    0.83820   1.00
O2       0.83820    0.27350    0.77350   1.00
O2       0.77350    0.33820    0.77350   1.00
O2       0.77350    0.27350    0.83820   1.00
C1       0.75000    0.25000    0.64480   1.00
C1       0.75000    0.14480    0.75000   1.00
C1       0.85520    0.25000    0.75000   1.00
C1       0.64480    0.25000    0.75000   1.00
C1       0.75000    0.35520    0.75000   1.00
C1       0.75000    0.25000    0.85520   1.00
O1       0.25000    0.75000    0.75000   1.00
Zn1      0.28280    0.71720    0.71720   1.00
Zn1      0.21720    0.78280    0.71720   1.00
Zn1      0.21720    0.71720    0.78280   1.00
Zn1      0.28280    0.78280    0.78280   1.00
O2       0.27350    0.72650    0.66180   1.00
O2       0.27350    0.66180    0.72650   1.00
O2       0.33820    0.72650    0.72650   1.00
O2       0.22650    0.77350    0.66180   1.00
O2       0.16180    0.77350    0.72650   1.00
O2       0.22650    0.83820    0.72650   1.00
O2       0.22650    0.66180    0.77350   1.00
O2       0.16180    0.72650    0.77350   1.00
O2       0.22650    0.72650    0.83820   1.00
O2       0.33820    0.77350    0.77350   1.00
O2       0.27350    0.83820    0.77350   1.00
O2       0.27350    0.77350    0.83820   1.00
C1       0.25000    0.75000    0.64480   1.00
C1       0.25000    0.64480    0.75000   1.00
C1       0.35520    0.75000    0.75000   1.00
C1       0.14480    0.75000    0.75000   1.00
C1       0.25000    0.85520    0.75000   1.00
C1       0.25000    0.75000    0.85520   1.00
O1       1.00000    1.00000    1.00000   1.00
Zn1      0.96720    1.03280    1.03280   1.00
Zn1      1.03280    0.96720    1.03280   1.00
Zn1      1.03280    1.03280    0.96720   1.00
Zn1      0.96720    0.96720    0.96720   1.00
O2       0.97650    1.02350    1.08820   1.00
O2       0.97650    1.08820    1.02350   1.00
O2       0.91180    1.02350    1.02350   1.00
O2       1.02350    0.97650    1.08820   1.00
O2       1.08820    0.97650    1.02350   1.00
O2       1.02350    0.91180    1.02350   1.00
O2       1.02350    1.08820    0.97650   1.00
O2       1.08820    1.02350    0.97650   1.00
O2       1.02350    1.02350    0.91180   1.00
O2       0.91180    0.97650    0.97650   1.00
O2       0.97650    0.91180    0.97650   1.00
O2       0.97650    0.97650    0.91180   1.00
C1       1.00000    1.00000    1.10520   1.00
C1       1.00000    1.10520    1.00000   1.00
C1       0.89480    1.00000    1.00000   1.00
C1       1.10520    1.00000    1.00000   1.00
C1       1.00000    0.89480    1.00000   1.00
C1       1.00000    1.00000    0.89480   1.00
O1       0.50000    0.50000    1.00000   1.00
Zn1      0.46720    0.53280    1.03280   1.00
Zn1      0.53280    0.46720    1.03280   1.00
Zn1      0.53280    0.53280    0.96720   1.00
Zn1      0.46720    0.46720    0.96720   1.00
O2       0.47650    0.52350    1.08820   1.00
O2       0.47650    0.58820    1.02350   1.00
O2       0.41180    0.52350    1.02350   1.00
O2       0.52350    0.47650    1.08820   1.00
O2       0.58820    0.47650    1.02350   1.00
O2       0.52350    0.41180    1.02350   1.00
O2       0.52350    0.58820    0.97650   1.00
O2       0.58820    0.52350    0.97650   1.00
O2       0.52350    0.52350    0.91180   1.00
O2       0.41180    0.47650    0.97650   1.00
O2       0.47650    0.41180    0.97650   1.00
O2       0.47650    0.47650    0.91180   1.00
C1       0.50000    0.50000    1.10520   1.00
C1       0.50000    0.60520    1.00000   1.00
C1       0.39480    0.50000    1.00000   1.00
C1       0.60520    0.50000    1.00000   1.00
C1       0.50000    0.39480    1.00000   1.00
C1       0.50000    0.50000    0.89480   1.00
O1       0.50000    1.00000    0.50000   1.00
Zn1      0.46720    1.03280    0.53280   1.00
Zn1      0.53280    0.96720    0.53280   1.00
Zn1      0.53280    1.03280    0.46720   1.00
Zn1      0.46720    0.96720    0.46720   1.00
O2       0.47650    1.02350    0.58820   1.00
O2       0.47650    1.08820    0.52350   1.00
O2       0.41180    1.02350    0.52350   1.00
O2       0.52350    0.97650    0.58820   1.00
O2       0.58820    0.97650    0.52350   1.00
O2       0.52350    0.91180    0.52350   1.00
O2       0.52350    1.08820    0.47650   1.00
O2       0.58820    1.02350    0.47650   1.00
O2       0.52350    1.02350    0.41180   1.00
O2       0.41180    0.97650    0.47650   1.00
O2       0.47650    0.91180    0.47650   1.00
O2       0.47650    0.97650    0.41180   1.00
C1       0.50000    1.00000    0.60520   1.00
C1       0.50000    1.10520    0.50000   1.00
C1       0.39480    1.00000    0.50000   1.00
C1       0.60520    1.00000    0.50000   1.00
C1       0.50000    0.89480    0.50000   1.00
C1       0.50000    1.00000    0.39480   1.00
O1       1.00000    0.50000    0.50000   1.00
Zn1      0.96720    0.53280    0.53280   1.00
Zn1      1.03280    0.46720    0.53280   1.00
Zn1      1.03280    0.53280    0.46720   1.00
Zn1      0.96720    0.46720    0.46720   1.00
O2       0.97650    0.52350    0.58820   1.00
O2       0.97650    0.58820    0.52350   1.00
O2       0.91180    0.52350    0.52350   1.00
O2       1.02350    0.47650    0.58820   1.00
O2       1.08820    0.47650    0.52350   1.00
O2       1.02350    0.41180    0.52350   1.00
O2       1.02350    0.58820    0.47650   1.00
O2       1.08820    0.52350    0.47650   1.00
O2       1.02350    0.52350    0.41180   1.00
O2       0.91180    0.47650    0.47650   1.00
O2       0.97650    0.41180    0.47650   1.00
O2       0.97650    0.47650    0.41180   1.00
C1       1.00000    0.50000    0.60520   1.00
C1       1.00000    0.60520    0.50000   1.00
C1       0.89480    0.50000    0.50000   1.00
C1       1.10520    0.50000    0.50000   1.00
C1       1.00000    0.39480    0.50000   1.00
C1       1.00000    0.50000    0.39480   1.00
O1       0.50000    0.50000    0.50000   1.00
Zn1      0.53280    0.46720    0.46720   1.00
Zn1      0.46720    0.53280    0.46720   1.00
Zn1      0.46720    0.46720    0.53280   1.00
Zn1      0.53280    0.53280    0.53280   1.00
O2       0.52350    0.47650    0.41180   1.00
O2       0.52350    0.41180    0.47650   1.00
O2       0.58820    0.47650    0.47650   1.00
O2       0.47650    0.52350    0.41180   1.00
O2       0.41180    0.52350    0.47650   1.00
O2       0.47650    0.58820    0.47650   1.00
O2       0.47650    0.41180    0.52350   1.00
O2       0.41180    0.47650    0.52350   1.00
O2       0.47650    0.47650    0.58820   1.00
O2       0.58820    0.52350    0.52350   1.00
O2       0.52350    0.58820    0.52350   1.00
O2       0.52350    0.52350    0.58820   1.00
C1       0.50000    0.50000    0.39480   1.00
C1       0.50000    0.39480    0.50000   1.00
C1       0.60520    0.50000    0.50000   1.00
C1       0.39480    0.50000    0.50000   1.00
C1       0.50000    0.60520    0.50000   1.00
C1       0.50000    0.50000    0.60520   1.00
O1       1.00000    1.00000    0.50000   1.00
Zn1      1.03280    0.96720    0.46720   1.00
Zn1      0.96720    1.03280    0.46720   1.00
Zn1      0.96720    0.96720    0.53280   1.00
Zn1      1.03280    1.03280    0.53280   1.00
O2       1.02350    0.97650    0.41180   1.00
O2       1.02350    0.91180    0.47650   1.00
O2       1.08820    0.97650    0.47650   1.00
O2       0.97650    1.02350    0.41180   1.00
O2       0.91180    1.02350    0.47650   1.00
O2       0.97650    1.08820    0.47650   1.00
O2       0.97650    0.91180    0.52350   1.00
O2       0.91180    0.97650    0.52350   1.00
O2       0.97650    0.97650    0.58820   1.00
O2       1.08820    1.02350    0.52350   1.00
O2       1.02350    1.08820    0.52350   1.00
O2       1.02350    1.02350    0.58820   1.00
C1       1.00000    1.00000    0.39480   1.00
C1       1.00000    0.89480    0.50000   1.00
C1       1.10520    1.00000    0.50000   1.00
C1       0.89480    1.00000    0.50000   1.00
C1       1.00000    1.10520    0.50000   1.00
C1       1.00000    1.00000    0.60520   1.00
O1       1.00000    0.50000    1.00000   1.00
Zn1      1.03280    0.46720    0.96720   1.00
Zn1      0.96720    0.53280    0.96720   1.00
Zn1      0.96720    0.46720    1.03280   1.00
Zn1      1.03280    0.53280    1.03280   1.00
O2       1.02350    0.47650    0.91180   1.00
O2       1.02350    0.41180    0.97650   1.00
O2       1.08820    0.47650    0.97650   1.00
O2       0.97650    0.52350    0.91180   1.00
O2       0.91180    0.52350    0.97650   1.00
O2       0.97650    0.58820    0.97650   1.00
O2       0.97650    0.41180    1.02350   1.00
O2       0.91180    0.47650    1.02350   1.00
O2       0.97650    0.47650    1.08820   1.00
O2       1.08820    0.52350    1.02350   1.00
O2       1.02350    0.58820    1.02350   1.00
O2       1.02350    0.52350    1.08820   1.00
C1       1.00000    0.50000    0.89480   1.00
C1       1.00000    0.39480    1.00000   1.00
C1       1.10520    0.50000    1.00000   1.00
C1       0.89480    0.50000    1.00000   1.00
C1       1.00000    0.60520    1.00000   1.00
C1       1.00000    0.50000    1.10520   1.00
O1       0.50000    1.00000    1.00000   1.00
Zn1      0.53280    0.96720    0.96720   1.00
Zn1      0.46720    1.03280    0.96720   1.00
Zn1      0.46720    0.96720    1.03280   1.00
Zn1      0.53280    1.03280    1.03280   1.00
O2       0.52350    0.97650    0.91180   1.00
O2       0.52350    0.91180    0.97650   1.00
O2       0.58820    0.97650    0.97650   1.00
O2       0.47650    1.02350    0.91180   1.00
O2       0.41180    1.02350    0.97650   1.00
O2       0.47650    1.08820    0.97650   1.00
O2       0.47650    0.91180    1.02350   1.00
O2       0.41180    0.97650    1.02350   1.00
O2       0.47650    0.97650    1.08820   1.00
O2       0.58820    1.02350    1.02350   1.00
O2       0.52350    1.08820    1.02350   1.00
O2       0.52350    1.02350    1.08820   1.00
C1       0.50000    1.00000    0.89480   1.00
C1       0.50000    0.89480    1.00000   1.00
C1       0.60520    1.00000    1.00000   1.00
C1       0.39480    1.00000    1.00000   1.00
C1       0.50000    1.10520    1.00000   1.00
C1       0.50000    1.00000    1.10520   1.00
C4       0.74980    0.75003    0.97915   1.00
C4       0.75020    0.74997    1.02085   1.00
C3a      0.71935    0.73163    0.95746   1.00
C3       0.72694    0.77630    1.04232   1.00
C3       0.77967    0.76852    0.95768   1.00
C3a      0.77403    0.72356    1.04254   1.00
C2       0.75001    0.75008    0.89488   1.00
C2       0.75002    0.75008    1.10512   1.00
C3       0.71998    0.73189    0.91595   1.00
C3       0.72680    0.77624    1.08363   1.00
C3       0.77979    0.76842    0.91637   1.00
C3       0.77350    0.72399    1.08405   1.00
C5       0.68604    0.71091    0.97772   1.00
H1       0.70846    0.79679    1.02691   1.00
H1       0.69688    0.71769    0.89979   1.00
H1       0.70838    0.79676    1.09901   1.00
H1       0.80336    0.78274    0.90099   1.00
H1       0.79152    0.70372    1.10021   1.00
C5       0.79994    0.69409    1.02228   1.00
H1       0.80328    0.78280    0.97309   1.00
H2       0.80692    0.66980    1.04256   1.00
H2       0.78424    0.68068    0.99731   1.00
H2       0.67233    0.68967    0.95744   1.00
H2       0.69719    0.69353    1.00269   1.00
N1       0.83605    0.71232    1.00857   1.00
C6       0.86444    0.72725    1.03073   1.00
C6       0.84744    0.71620    0.97154   1.00
C6       0.89410    0.74133    1.00759   1.00
C6       0.88330    0.73430    0.96995   1.00
H3       0.86362    0.72825    1.06197   1.00
H3       0.83059    0.70676    0.94700   1.00
H3       0.92066    0.75515    1.01713   1.00
H3       0.89972    0.74158    0.94425   1.00
N1       0.65673    0.73879    0.99143   1.00
C6       0.64695    0.74580    1.02846   1.00
C6       0.63387    0.76129    0.96927   1.00
C6       0.61785    0.77348    1.03005   1.00
C6       0.60954    0.78334    0.99241   1.00
H3       0.66035    0.73189    1.05300   1.00
H3       0.63494    0.76201    0.93803   1.00
H3       0.60423    0.78520    1.05575   1.00
H3       0.58811    0.80424    0.98287   1.00
C4       0.75003    0.97915    0.74980   1.00
C4       0.74997    1.02085    0.75020   1.00
C3a      0.73163    0.95746    0.71935   1.00
C3       0.77630    1.04232    0.72694   1.00
C3       0.76852    0.95768    0.77967   1.00
C3a      0.72356    1.04254    0.77403   1.00
C2       0.75008    0.89488    0.75001   1.00
C2       0.75008    1.10512    0.75002   1.00
C3       0.73189    0.91595    0.71998   1.00
C3       0.77624    1.08363    0.72680   1.00
C3       0.76842    0.91637    0.77979   1.00
C3       0.72399    1.08405    0.77350   1.00
C5       0.71091    0.97772    0.68604   1.00
H1       0.79679    1.02691    0.70846   1.00
H1       0.71769    0.89979    0.69688   1.00
H1       0.79676    1.09901    0.70838   1.00
H1       0.78274    0.90099    0.80336   1.00
H1       0.70372    1.10021    0.79152   1.00
C5       0.69409    1.02228    0.79994   1.00
H1       0.78280    0.97309    0.80328   1.00
H2       0.66980    1.04256    0.80692   1.00
H2       0.68068    0.99731    0.78424   1.00
H2       0.68967    0.95744    0.67233   1.00
H2       0.69353    1.00269    0.69719   1.00
N1       0.71232    1.00857    0.83605   1.00
C6       0.72725    1.03073    0.86444   1.00
C6       0.71620    0.97154    0.84744   1.00
C6       0.74133    1.00759    0.89410   1.00
C6       0.73430    0.96995    0.88330   1.00
H3       0.72825    1.06197    0.86362   1.00
H3       0.70676    0.94700    0.83059   1.00
H3       0.75515    1.01713    0.92066   1.00
H3       0.74158    0.94425    0.89972   1.00
N1       0.73879    0.99143    0.65673   1.00
C6       0.74580    1.02846    0.64695   1.00
C6       0.76129    0.96927    0.63387   1.00
C6       0.77348    1.03005    0.61785   1.00
C6       0.78334    0.99241    0.60954   1.00
H3       0.73189    1.05300    0.66035   1.00
H3       0.76201    0.93803    0.63494   1.00
H3       0.78520    1.05575    0.60423   1.00
H3       0.80424    0.98287    0.58811   1.00
C4       0.52085    0.74980    0.74997   1.00
C4       0.47915    0.75020    0.75003   1.00
C3a      0.54254    0.71935    0.76837   1.00
C3       0.45768    0.72694    0.72370   1.00
C3       0.54232    0.77967    0.73148   1.00
C3a      0.45746    0.77403    0.77644   1.00
C2       0.60512    0.75001    0.74992   1.00
C2       0.39488    0.75002    0.74992   1.00
C3       0.58405    0.71998    0.76811   1.00
C3       0.41637    0.72680    0.72376   1.00
C3       0.58363    0.77979    0.73158   1.00
C3       0.41595    0.77350    0.77601   1.00
C5       0.52228    0.68604    0.78909   1.00
H1       0.47309    0.70846    0.70321   1.00
H1       0.60021    0.69688    0.78231   1.00
H1       0.40099    0.70838    0.70324   1.00
H1       0.59901    0.80336    0.71726   1.00
H1       0.39979    0.79152    0.79628   1.00
C5       0.47772    0.79994    0.80591   1.00
H1       0.52691    0.80328    0.71720   1.00
H2       0.45744    0.80692    0.83020   1.00
H2       0.50269    0.78424    0.81932   1.00
H2       0.54256    0.67233    0.81033   1.00
H2       0.49731    0.69719    0.80647   1.00
N1       0.49143    0.83605    0.78768   1.00
C6       0.46927    0.86444    0.77275   1.00
C6       0.52846    0.84744    0.78380   1.00
C6       0.49241    0.89410    0.75867   1.00
C6       0.53005    0.88330    0.76570   1.00
H3       0.43803    0.86362    0.77175   1.00
H3       0.55300    0.83059    0.79324   1.00
H3       0.48287    0.92066    0.74485   1.00
H3       0.55575    0.89972    0.75842   1.00
N1       0.50857    0.65673    0.76121   1.00
C6       0.47154    0.64695    0.75420   1.00
C6       0.53073    0.63387    0.73871   1.00
C6       0.46995    0.61785    0.72652   1.00
C6       0.50759    0.60954    0.71666   1.00
H3       0.44700    0.66035    0.76811   1.00
H3       0.56197    0.63494    0.73799   1.00
H3       0.44425    0.60423    0.71480   1.00
H3       0.51713    0.58811    0.69576   1.00
C4       0.97915    0.74980    0.75003   1.00
C4       1.02085    0.75020    0.74997   1.00
C3a      0.95746    0.71935    0.73163   1.00
C3       1.04232    0.72694    0.77630   1.00
C3       0.95768    0.77967    0.76852   1.00
C3a      1.04254    0.77403    0.72356   1.00
C2       0.89488    0.75001    0.75008   1.00
C2       1.10512    0.75002    0.75008   1.00
C3       0.91595    0.71998    0.73189   1.00
C3       1.08363    0.72680    0.77624   1.00
C3       0.91637    0.77979    0.76842   1.00
C3       1.08405    0.77350    0.72399   1.00
C5       0.97772    0.68604    0.71091   1.00
H1       1.02691    0.70846    0.79679   1.00
H1       0.89979    0.69688    0.71769   1.00
H1       1.09901    0.70838    0.79676   1.00
H1       0.90099    0.80336    0.78274   1.00
H1       1.10021    0.79152    0.70372   1.00
C5       1.02228    0.79994    0.69409   1.00
H1       0.97309    0.80328    0.78280   1.00
H2       1.04256    0.80692    0.66980   1.00
H2       0.99731    0.78424    0.68068   1.00
H2       0.95744    0.67233    0.68967   1.00
H2       1.00269    0.69719    0.69353   1.00
N1       1.00857    0.83605    0.71232   1.00
C6       1.03073    0.86444    0.72725   1.00
C6       0.97154    0.84744    0.71620   1.00
C6       1.00759    0.89410    0.74133   1.00
C6       0.96995    0.88330    0.73430   1.00
H3       1.06197    0.86362    0.72825   1.00
H3       0.94700    0.83059    0.70676   1.00
H3       1.01713    0.92066    0.75515   1.00
H3       0.94425    0.89972    0.74158   1.00
N1       0.99143    0.65673    0.73879   1.00
C6       1.02846    0.64695    0.74580   1.00
C6       0.96927    0.63387    0.76129   1.00
C6       1.03005    0.61785    0.77348   1.00
C6       0.99241    0.60954    0.78334   1.00
H3       1.05300    0.66035    0.73189   1.00
H3       0.93803    0.63494    0.76201   1.00
H3       1.05575    0.60423    0.78520   1.00
H3       0.98287    0.58811    0.80424   1.00
C4       0.74997    0.52085    0.74980   1.00
C4       0.75003    0.47915    0.75020   1.00
C3a      0.76837    0.54254    0.71935   1.00
C3       0.72370    0.45768    0.72694   1.00
C3       0.73148    0.54232    0.77967   1.00
C3a      0.77644    0.45746    0.77403   1.00
C2       0.74992    0.60512    0.75001   1.00
C2       0.74992    0.39488    0.75002   1.00
C3       0.76811    0.58405    0.71998   1.00
C3       0.72376    0.41637    0.72680   1.00
C3       0.73158    0.58363    0.77979   1.00
C3       0.77601    0.41595    0.77350   1.00
C5       0.78909    0.52228    0.68604   1.00
H1       0.70321    0.47309    0.70846   1.00
H1       0.78231    0.60021    0.69688   1.00
H1       0.70324    0.40099    0.70838   1.00
H1       0.71726    0.59901    0.80336   1.00
H1       0.79628    0.39979    0.79152   1.00
C5       0.80591    0.47772    0.79994   1.00
H1       0.71720    0.52691    0.80328   1.00
H2       0.83020    0.45744    0.80692   1.00
H2       0.81932    0.50269    0.78424   1.00
H2       0.81033    0.54256    0.67233   1.00
H2       0.80647    0.49731    0.69719   1.00
N1       0.78768    0.49143    0.83605   1.00
C6       0.77275    0.46927    0.86444   1.00
C6       0.78380    0.52846    0.84744   1.00
C6       0.75867    0.49241    0.89410   1.00
C6       0.76570    0.53005    0.88330   1.00
H3       0.77175    0.43803    0.86362   1.00
H3       0.79324    0.55300    0.83059   1.00
H3       0.74485    0.48287    0.92066   1.00
H3       0.75842    0.55575    0.89972   1.00
N1       0.76121    0.50857    0.65673   1.00
C6       0.75420    0.47154    0.64695   1.00
C6       0.73871    0.53073    0.63387   1.00
C6       0.72652    0.46995    0.61785   1.00
C6       0.71666    0.50759    0.60954   1.00
H3       0.76811    0.44700    0.66035   1.00
H3       0.73799    0.56197    0.63494   1.00
H3       0.71480    0.44425    0.60423   1.00
H3       0.69576    0.51713    0.58811   1.00
C4       0.74980    0.74997    0.52085   1.00
C4       0.75020    0.75003    0.47915   1.00
C3a      0.71935    0.76837    0.54254   1.00
C3       0.72694    0.72370    0.45768   1.00
C3       0.77967    0.73148    0.54232   1.00
C3a      0.77403    0.77644    0.45746   1.00
C2       0.75001    0.74992    0.60512   1.00
C2       0.75002    0.74992    0.39488   1.00
C3       0.71998    0.76811    0.58405   1.00
C3       0.72680    0.72376    0.41637   1.00
C3       0.77979    0.73158    0.58363   1.00
C3       0.77350    0.77601    0.41595   1.00
C5       0.68604    0.78909    0.52228   1.00
H1       0.70846    0.70321    0.47309   1.00
H1       0.69688    0.78231    0.60021   1.00
H1       0.70838    0.70324    0.40099   1.00
H1       0.80336    0.71726    0.59901   1.00
H1       0.79152    0.79628    0.39979   1.00
C5       0.79994    0.80591    0.47772   1.00
H1       0.80328    0.71720    0.52691   1.00
H2       0.80692    0.83020    0.45744   1.00
H2       0.78424    0.81932    0.50269   1.00
H2       0.67233    0.81033    0.54256   1.00
H2       0.69719    0.80647    0.49731   1.00
N1       0.83605    0.78768    0.49143   1.00
C6       0.86444    0.77275    0.46927   1.00
C6       0.84744    0.78380    0.52846   1.00
C6       0.89410    0.75867    0.49241   1.00
C6       0.88330    0.76570    0.53005   1.00
H3       0.86362    0.77175    0.43803   1.00
H3       0.83059    0.79324    0.55300   1.00
H3       0.92066    0.74485    0.48287   1.00
H3       0.89972    0.75842    0.55575   1.00
N1       0.65673    0.76121    0.50857   1.00
C6       0.64695    0.75420    0.47154   1.00
C6       0.63387    0.73871    0.53073   1.00
C6       0.61785    0.72652    0.46995   1.00
C6       0.60954    0.71666    0.50759   1.00
H3       0.66035    0.76811    0.44700   1.00
H3       0.63494    0.73799    0.56197   1.00
H3       0.60423    0.71480    0.44425   1.00
H3       0.58811    0.69576    0.51713   1.00
C4       0.24980    0.25003    0.97915   1.00
C4       0.25020    0.24997    1.02085   1.00
C3a      0.21935    0.23163    0.95746   1.00
C3       0.22694    0.27630    1.04232   1.00
C3       0.27967    0.26852    0.95768   1.00
C3a      0.27403    0.22356    1.04254   1.00
C2       0.25001    0.25008    0.89488   1.00
C2       0.25002    0.25008    1.10512   1.00
C3       0.21998    0.23189    0.91595   1.00
C3       0.22680    0.27624    1.08363   1.00
C3       0.27979    0.26842    0.91637   1.00
C3       0.27350    0.22399    1.08405   1.00
C5       0.18604    0.21091    0.97772   1.00
H1       0.20846    0.29679    1.02691   1.00
H1       0.19688    0.21769    0.89979   1.00
H1       0.20838    0.29676    1.09901   1.00
H1       0.30336    0.28274    0.90099   1.00
H1       0.29152    0.20372    1.10021   1.00
C5       0.29994    0.19409    1.02228   1.00
H1       0.30328    0.28280    0.97309   1.00
H2       0.30692    0.16980    1.04256   1.00
H2       0.28424    0.18068    0.99731   1.00
H2       0.17233    0.18967    0.95744   1.00
H2       0.19719    0.19353    1.00269   1.00
N1       0.33605    0.21232    1.00857   1.00
C6       0.36444    0.22725    1.03073   1.00
C6       0.34744    0.21620    0.97154   1.00
C6       0.39410    0.24133    1.00759   1.00
C6       0.38330    0.23430    0.96995   1.00
H3       0.36362    0.22825    1.06197   1.00
H3       0.33059    0.20676    0.94700   1.00
H3       0.42066    0.25515    1.01713   1.00
H3       0.39972    0.24158    0.94425   1.00
N1       0.15673    0.23879    0.99143   1.00
C6       0.14695    0.24580    1.02846   1.00
C6       0.13387    0.26129    0.96927   1.00
C6       0.11785    0.27348    1.03005   1.00
C6       0.10954    0.28334    0.99241   1.00
H3       0.16035    0.23189    1.05300   1.00
H3       0.13494    0.26201    0.93803   1.00
H3       0.10423    0.28520    1.05575   1.00
H3       0.08811    0.30424    0.98287   1.00
C4       0.25003    0.47915    0.74980   1.00
C4       0.24997    0.52085    0.75020   1.00
C3a      0.23163    0.45746    0.71935   1.00
C3       0.27630    0.54232    0.72694   1.00
C3       0.26852    0.45768    0.77967   1.00
C3a      0.22356    0.54254    0.77403   1.00
C2       0.25008    0.39488    0.75001   1.00
C2       0.25008    0.60512    0.75002   1.00
C3       0.23189    0.41595    0.71998   1.00
C3       0.27624    0.58363    0.72680   1.00
C3       0.26842    0.41637    0.77979   1.00
C3       0.22399    0.58405    0.77350   1.00
C5       0.21091    0.47772    0.68604   1.00
H1       0.29679    0.52691    0.70846   1.00
H1       0.21769    0.39979    0.69688   1.00
H1       0.29676    0.59901    0.70838   1.00
H1       0.28274    0.40099    0.80336   1.00
H1       0.20372    0.60021    0.79152   1.00
C5       0.19409    0.52228    0.79994   1.00
H1       0.28280    0.47309    0.80328   1.00
H2       0.16980    0.54256    0.80692   1.00
H2       0.18068    0.49731    0.78424   1.00
H2       0.18967    0.45744    0.67233   1.00
H2       0.19353    0.50269    0.69719   1.00
N1       0.21232    0.50857    0.83605   1.00
C6       0.22725    0.53073    0.86444   1.00
C6       0.21620    0.47154    0.84744   1.00
C6       0.24133    0.50759    0.89410   1.00
C6       0.23430    0.46995    0.88330   1.00
H3       0.22825    0.56197    0.86362   1.00
H3       0.20676    0.44700    0.83059   1.00
H3       0.25515    0.51713    0.92066   1.00
H3       0.24158    0.44425    0.89972   1.00
N1       0.23879    0.49143    0.65673   1.00
C6       0.24580    0.52846    0.64695   1.00
C6       0.26129    0.46927    0.63387   1.00
C6       0.27348    0.53005    0.61785   1.00
C6       0.28334    0.49241    0.60954   1.00
H3       0.23189    0.55300    0.66035   1.00
H3       0.26201    0.43803    0.63494   1.00
H3       0.28520    0.55575    0.60423   1.00
H3       0.30424    0.48287    0.58811   1.00
C4       0.02085    0.24980    0.74997   1.00
C4       -0.02085   0.25020    0.75003   1.00
C3a      0.04254    0.21935    0.76837   1.00
C3       -0.04232   0.22694    0.72370   1.00
C3       0.04232    0.27967    0.73148   1.00
C3a      -0.04254   0.27403    0.77644   1.00
C2       0.10512    0.25001    0.74992   1.00
C2       -0.10512   0.25002    0.74992   1.00
C3       0.08405    0.21998    0.76811   1.00
C3       -0.08363   0.22680    0.72376   1.00
C3       0.08363    0.27979    0.73158   1.00
C3       -0.08405   0.27350    0.77601   1.00
C5       0.02228    0.18604    0.78909   1.00
H1       -0.02691   0.20846    0.70321   1.00
H1       0.10021    0.19688    0.78231   1.00
H1       -0.09901   0.20838    0.70324   1.00
H1       0.09901    0.30336    0.71726   1.00
H1       -0.10021   0.29152    0.79628   1.00
C5       -0.02228   0.29994    0.80591   1.00
H1       0.02691    0.30328    0.71720   1.00
H2       -0.04256   0.30692    0.83020   1.00
H2       0.00269    0.28424    0.81932   1.00
H2       0.04256    0.17233    0.81033   1.00
H2       -0.00269   0.19719    0.80647   1.00
N1       -0.00857   0.33605    0.78768   1.00
C6       -0.03073   0.36444    0.77275   1.00
C6       0.02846    0.34744    0.78380   1.00
C6       -0.00759   0.39410    0.75867   1.00
C6       0.03005    0.38330    0.76570   1.00
H3       -0.06197   0.36362    0.77175   1.00
H3       0.05300    0.33059    0.79324   1.00
H3       -0.01713   0.42066    0.74485   1.00
H3       0.05575    0.39972    0.75842   1.00
N1       0.00857    0.15673    0.76121   1.00
C6       -0.02846   0.14695    0.75420   1.00
C6       0.03073    0.13387    0.73871   1.00
C6       -0.03005   0.11785    0.72652   1.00
C6       0.00759    0.10954    0.71666   1.00
H3       -0.05300   0.16035    0.76811   1.00
H3       0.06197    0.13494    0.73799   1.00
H3       -0.05575   0.10423    0.71480   1.00
H3       0.01713    0.08811    0.69576   1.00
C4       0.47915    0.24980    0.75003   1.00
C4       0.52085    0.25020    0.74997   1.00
C3a      0.45746    0.21935    0.73163   1.00
C3       0.54232    0.22694    0.77630   1.00
C3       0.45768    0.27967    0.76852   1.00
C3a      0.54254    0.27403    0.72356   1.00
C2       0.39488    0.25001    0.75008   1.00
C2       0.60512    0.25002    0.75008   1.00
C3       0.41595    0.21998    0.73189   1.00
C3       0.58363    0.22680    0.77624   1.00
C3       0.41637    0.27979    0.76842   1.00
C3       0.58405    0.27350    0.72399   1.00
C5       0.47772    0.18604    0.71091   1.00
H1       0.52691    0.20846    0.79679   1.00
H1       0.39979    0.19688    0.71769   1.00
H1       0.59901    0.20838    0.79676   1.00
H1       0.40099    0.30336    0.78274   1.00
H1       0.60021    0.29152    0.70372   1.00
C5       0.52228    0.29994    0.69409   1.00
H1       0.47309    0.30328    0.78280   1.00
H2       0.54256    0.30692    0.66980   1.00
H2       0.49731    0.28424    0.68068   1.00
H2       0.45744    0.17233    0.68967   1.00
H2       0.50269    0.19719    0.69353   1.00
N1       0.50857    0.33605    0.71232   1.00
C6       0.53073    0.36444    0.72725   1.00
C6       0.47154    0.34744    0.71620   1.00
C6       0.50759    0.39410    0.74133   1.00
C6       0.46995    0.38330    0.73430   1.00
H3       0.56197    0.36362    0.72825   1.00
H3       0.44700    0.33059    0.70676   1.00
H3       0.51713    0.42066    0.75515   1.00
H3       0.44425    0.39972    0.74158   1.00
N1       0.49143    0.15673    0.73879   1.00
C6       0.52846    0.14695    0.74580   1.00
C6       0.46927    0.13387    0.76129   1.00
C6       0.53005    0.11785    0.77348   1.00
C6       0.49241    0.10954    0.78334   1.00
H3       0.55300    0.16035    0.73189   1.00
H3       0.43803    0.13494    0.76201   1.00
H3       0.55575    0.10423    0.78520   1.00
H3       0.48287    0.08811    0.80424   1.00
C4       0.24997    0.02085    0.74980   1.00
C4       0.25003    -0.02085   0.75020   1.00
C3a      0.26837    0.04254    0.71935   1.00
C3       0.22370    -0.04232   0.72694   1.00
C3       0.23148    0.04232    0.77967   1.00
C3a      0.27644    -0.04254   0.77403   1.00
C2       0.24992    0.10512    0.75001   1.00
C2       0.24992    -0.10512   0.75002   1.00
C3       0.26811    0.08405    0.71998   1.00
C3       0.22376    -0.08363   0.72680   1.00
C3       0.23158    0.08363    0.77979   1.00
C3       0.27601    -0.08405   0.77350   1.00
C5       0.28909    0.02228    0.68604   1.00
H1       0.20321    -0.02691   0.70846   1.00
H1       0.28231    0.10021    0.69688   1.00
H1       0.20324    -0.09901   0.70838   1.00
H1       0.21726    0.09901    0.80336   1.00
H1       0.29628    -0.10021   0.79152   1.00
C5       0.30591    -0.02228   0.79994   1.00
H1       0.21720    0.02691    0.80328   1.00
H2       0.33020    -0.04256   0.80692   1.00
H2       0.31932    0.00269    0.78424   1.00
H2       0.31033    0.04256    0.67233   1.00
H2       0.30647    -0.00269   0.69719   1.00
N1       0.28768    -0.00857   0.83605   1.00
C6       0.27275    -0.03073   0.86444   1.00
C6       0.28380    0.02846    0.84744   1.00
C6       0.25867    -0.00759   0.89410   1.00
C6       0.26570    0.03005    0.88330   1.00
H3       0.27175    -0.06197   0.86362   1.00
H3       0.29324    0.05300    0.83059   1.00
H3       0.24485    -0.01713   0.92066   1.00
H3       0.25842    0.05575    0.89972   1.00
N1       0.26121    0.00857    0.65673   1.00
C6       0.25420    -0.02846   0.64695   1.00
C6       0.23871    0.03073    0.63387   1.00
C6       0.22652    -0.03005   0.61785   1.00
C6       0.21666    0.00759    0.60954   1.00
H3       0.26811    -0.05300   0.66035   1.00
H3       0.23799    0.06197    0.63494   1.00
H3       0.21480    -0.05575   0.60423   1.00
H3       0.19576    0.01713    0.58811   1.00
C4       0.24980    0.24997    0.52085   1.00
C4       0.25020    0.25003    0.47915   1.00
C3a      0.21935    0.26837    0.54254   1.00
C3       0.22694    0.22370    0.45768   1.00
C3       0.27967    0.23148    0.54232   1.00
C3a      0.27403    0.27644    0.45746   1.00
C2       0.25001    0.24992    0.60512   1.00
C2       0.25002    0.24992    0.39488   1.00
C3       0.21998    0.26811    0.58405   1.00
C3       0.22680    0.22376    0.41637   1.00
C3       0.27979    0.23158    0.58363   1.00
C3       0.27350    0.27601    0.41595   1.00
C5       0.18604    0.28909    0.52228   1.00
H1       0.20846    0.20321    0.47309   1.00
H1       0.19688    0.28231    0.60021   1.00
H1       0.20838    0.20324    0.40099   1.00
H1       0.30336    0.21726    0.59901   1.00
H1       0.29152    0.29628    0.39979   1.00
C5       0.29994    0.30591    0.47772   1.00
H1       0.30328    0.21720    0.52691   1.00
H2       0.30692    0.33020    0.45744   1.00
H2       0.28424    0.31932    0.50269   1.00
H2       0.17233    0.31033    0.54256   1.00
H2       0.19719    0.30647    0.49731   1.00
N1       0.33605    0.28768    0.49143   1.00
C6       0.36444    0.27275    0.46927   1.00
C6       0.34744    0.28380    0.52846   1.00
C6       0.39410    0.25867    0.49241   1.00
C6       0.38330    0.26570    0.53005   1.00
H3       0.36362    0.27175    0.43803   1.00
H3       0.33059    0.29324    0.55300   1.00
H3       0.42066    0.24485    0.48287   1.00
H3       0.39972    0.25842    0.55575   1.00
N1       0.15673    0.26121    0.50857   1.00
C6       0.14695    0.25420    0.47154   1.00
C6       0.13387    0.23871    0.53073   1.00
C6       0.11785    0.22652    0.46995   1.00
C6       0.10954    0.21666    0.50759   1.00
H3       0.16035    0.26811    0.44700   1.00
H3       0.13494    0.23799    0.56197   1.00
H3       0.10423    0.21480    0.44425   1.00
H3       0.08811    0.19576    0.51713   1.00
C4       0.24980    0.75003    0.47915   1.00
C4       0.25020    0.74997    0.52085   1.00
C3a      0.21935    0.73163    0.45746   1.00
C3       0.22694    0.77630    0.54232   1.00
C3       0.27967    0.76852    0.45768   1.00
C3a      0.27403    0.72356    0.54254   1.00
C2       0.25001    0.75008    0.39488   1.00
C2       0.25002    0.75008    0.60512   1.00
C3       0.21998    0.73189    0.41595   1.00
C3       0.22680    0.77624    0.58363   1.00
C3       0.27979    0.76842    0.41637   1.00
C3       0.27350    0.72399    0.58405   1.00
C5       0.18604    0.71091    0.47772   1.00
H1       0.20846    0.79679    0.52691   1.00
H1       0.19688    0.71769    0.39979   1.00
H1       0.20838    0.79676    0.59901   1.00
H1       0.30336    0.78274    0.40099   1.00
H1       0.29152    0.70372    0.60021   1.00
C5       0.29994    0.69409    0.52228   1.00
H1       0.30328    0.78280    0.47309   1.00
H2       0.30692    0.66980    0.54256   1.00
H2       0.28424    0.68068    0.49731   1.00
H2       0.17233    0.68967    0.45744   1.00
H2       0.19719    0.69353    0.50269   1.00
N1       0.33605    0.71232    0.50857   1.00
C6       0.36444    0.72725    0.53073   1.00
C6       0.34744    0.71620    0.47154   1.00
C6       0.39410    0.74133    0.50759   1.00
C6       0.38330    0.73430    0.46995   1.00
H3       0.36362    0.72825    0.56197   1.00
H3       0.33059    0.70676    0.44700   1.00
H3       0.42066    0.75515    0.51713   1.00
H3       0.39972    0.74158    0.44425   1.00
N1       0.15673    0.73879    0.49143   1.00
C6       0.14695    0.74580    0.52846   1.00
C6       0.13387    0.76129    0.46927   1.00
C6       0.11785    0.77348    0.53005   1.00
C6       0.10954    0.78334    0.49241   1.00
H3       0.16035    0.73189    0.55300   1.00
H3       0.13494    0.76201    0.43803   1.00
H3       0.10423    0.78520    0.55575   1.00
H3       0.08811    0.80424    0.48287   1.00
C4       0.25003    0.97915    0.24980   1.00
C4       0.24997    1.02085    0.25020   1.00
C3a      0.23163    0.95746    0.21935   1.00
C3       0.27630    1.04232    0.22694   1.00
C3       0.26852    0.95768    0.27967   1.00
C3a      0.22356    1.04254    0.27403   1.00
C2       0.25008    0.89488    0.25001   1.00
C2       0.25008    1.10512    0.25002   1.00
C3       0.23189    0.91595    0.21998   1.00
C3       0.27624    1.08363    0.22680   1.00
C3       0.26842    0.91637    0.27979   1.00
C3       0.22399    1.08405    0.27350   1.00
C5       0.21091    0.97772    0.18604   1.00
H1       0.29679    1.02691    0.20846   1.00
H1       0.21769    0.89979    0.19688   1.00
H1       0.29676    1.09901    0.20838   1.00
H1       0.28274    0.90099    0.30336   1.00
H1       0.20372    1.10021    0.29152   1.00
C5       0.19409    1.02228    0.29994   1.00
H1       0.28280    0.97309    0.30328   1.00
H2       0.16980    1.04256    0.30692   1.00
H2       0.18068    0.99731    0.28424   1.00
H2       0.18967    0.95744    0.17233   1.00
H2       0.19353    1.00269    0.19719   1.00
N1       0.21232    1.00857    0.33605   1.00
C6       0.22725    1.03073    0.36444   1.00
C6       0.21620    0.97154    0.34744   1.00
C6       0.24133    1.00759    0.39410   1.00
C6       0.23430    0.96995    0.38330   1.00
H3       0.22825    1.06197    0.36362   1.00
H3       0.20676    0.94700    0.33059   1.00
H3       0.25515    1.01713    0.42066   1.00
H3       0.24158    0.94425    0.39972   1.00
N1       0.23879    0.99143    0.15673   1.00
C6       0.24580    1.02846    0.14695   1.00
C6       0.26129    0.96927    0.13387   1.00
C6       0.27348    1.03005    0.11785   1.00
C6       0.28334    0.99241    0.10954   1.00
H3       0.23189    1.05300    0.16035   1.00
H3       0.26201    0.93803    0.13494   1.00
H3       0.28520    1.05575    0.10423   1.00
H3       0.30424    0.98287    0.08811   1.00
C4       0.02085    0.74980    0.24997   1.00
C4       -0.02085   0.75020    0.25003   1.00
C3a      0.04254    0.71935    0.26837   1.00
C3       -0.04232   0.72694    0.22370   1.00
C3       0.04232    0.77967    0.23148   1.00
C3a      -0.04254   0.77403    0.27644   1.00
C2       0.10512    0.75001    0.24992   1.00
C2       -0.10512   0.75002    0.24992   1.00
C3       0.08405    0.71998    0.26811   1.00
C3       -0.08363   0.72680    0.22376   1.00
C3       0.08363    0.77979    0.23158   1.00
C3       -0.08405   0.77350    0.27601   1.00
C5       0.02228    0.68604    0.28909   1.00
H1       -0.02691   0.70846    0.20321   1.00
H1       0.10021    0.69688    0.28231   1.00
H1       -0.09901   0.70838    0.20324   1.00
H1       0.09901    0.80336    0.21726   1.00
H1       -0.10021   0.79152    0.29628   1.00
C5       -0.02228   0.79994    0.30591   1.00
H1       0.02691    0.80328    0.21720   1.00
H2       -0.04256   0.80692    0.33020   1.00
H2       0.00269    0.78424    0.31932   1.00
H2       0.04256    0.67233    0.31033   1.00
H2       -0.00269   0.69719    0.30647   1.00
N1       -0.00857   0.83605    0.28768   1.00
C6       -0.03073   0.86444    0.27275   1.00
C6       0.02846    0.84744    0.28380   1.00
C6       -0.00759   0.89410    0.25867   1.00
C6       0.03005    0.88330    0.26570   1.00
H3       -0.06197   0.86362    0.27175   1.00
H3       0.05300    0.83059    0.29324   1.00
H3       -0.01713   0.92066    0.24485   1.00
H3       0.05575    0.89972    0.25842   1.00
N1       0.00857    0.65673    0.26121   1.00
C6       -0.02846   0.64695    0.25420   1.00
C6       0.03073    0.63387    0.23871   1.00
C6       -0.03005   0.61785    0.22652   1.00
C6       0.00759    0.60954    0.21666   1.00
H3       -0.05300   0.66035    0.26811   1.00
H3       0.06197    0.63494    0.23799   1.00
H3       -0.05575   0.60423    0.21480   1.00
H3       0.01713    0.58811    0.19576   1.00
C4       0.47915    0.74980    0.25003   1.00
C4       0.52085    0.75020    0.24997   1.00
C3a      0.45746    0.71935    0.23163   1.00
C3       0.54232    0.72694    0.27630   1.00
C3       0.45768    0.77967    0.26852   1.00
C3a      0.54254    0.77403    0.22356   1.00
C2       0.39488    0.75001    0.25008   1.00
C2       0.60512    0.75002    0.25008   1.00
C3       0.41595    0.71998    0.23189   1.00
C3       0.58363    0.72680    0.27624   1.00
C3       0.41637    0.77979    0.26842   1.00
C3       0.58405    0.77350    0.22399   1.00
C5       0.47772    0.68604    0.21091   1.00
H1       0.52691    0.70846    0.29679   1.00
H1       0.39979    0.69688    0.21769   1.00
H1       0.59901    0.70838    0.29676   1.00
H1       0.40099    0.80336    0.28274   1.00
H1       0.60021    0.79152    0.20372   1.00
C5       0.52228    0.79994    0.19409   1.00
H1       0.47309    0.80328    0.28280   1.00
H2       0.54256    0.80692    0.16980   1.00
H2       0.49731    0.78424    0.18068   1.00
H2       0.45744    0.67233    0.18967   1.00
H2       0.50269    0.69719    0.19353   1.00
N1       0.50857    0.83605    0.21232   1.00
C6       0.53073    0.86444    0.22725   1.00
C6       0.47154    0.84744    0.21620   1.00
C6       0.50759    0.89410    0.24133   1.00
C6       0.46995    0.88330    0.23430   1.00
H3       0.56197    0.86362    0.22825   1.00
H3       0.44700    0.83059    0.20676   1.00
H3       0.51713    0.92066    0.25515   1.00
H3       0.44425    0.89972    0.24158   1.00
N1       0.49143    0.65673    0.23879   1.00
C6       0.52846    0.64695    0.24580   1.00
C6       0.46927    0.63387    0.26129   1.00
C6       0.53005    0.61785    0.27348   1.00
C6       0.49241    0.60954    0.28334   1.00
H3       0.55300    0.66035    0.23189   1.00
H3       0.43803    0.63494    0.26201   1.00
H3       0.55575    0.60423    0.28520   1.00
H3       0.48287    0.58811    0.30424   1.00
C4       0.24997    0.52085    0.24980   1.00
C4       0.25003    0.47915    0.25020   1.00
C3a      0.26837    0.54254    0.21935   1.00
C3       0.22370    0.45768    0.22694   1.00
C3       0.23148    0.54232    0.27967   1.00
C3a      0.27644    0.45746    0.27403   1.00
C2       0.24992    0.60512    0.25001   1.00
C2       0.24992    0.39488    0.25002   1.00
C3       0.26811    0.58405    0.21998   1.00
C3       0.22376    0.41637    0.22680   1.00
C3       0.23158    0.58363    0.27979   1.00
C3       0.27601    0.41595    0.27350   1.00
C5       0.28909    0.52228    0.18604   1.00
H1       0.20321    0.47309    0.20846   1.00
H1       0.28231    0.60021    0.19688   1.00
H1       0.20324    0.40099    0.20838   1.00
H1       0.21726    0.59901    0.30336   1.00
H1       0.29628    0.39979    0.29152   1.00
C5       0.30591    0.47772    0.29994   1.00
H1       0.21720    0.52691    0.30328   1.00
H2       0.33020    0.45744    0.30692   1.00
H2       0.31932    0.50269    0.28424   1.00
H2       0.31033    0.54256    0.17233   1.00
H2       0.30647    0.49731    0.19719   1.00
N1       0.28768    0.49143    0.33605   1.00
C6       0.27275    0.46927    0.36444   1.00
C6       0.28380    0.52846    0.34744   1.00
C6       0.25867    0.49241    0.39410   1.00
C6       0.26570    0.53005    0.38330   1.00
H3       0.27175    0.43803    0.36362   1.00
H3       0.29324    0.55300    0.33059   1.00
H3       0.24485    0.48287    0.42066   1.00
H3       0.25842    0.55575    0.39972   1.00
N1       0.26121    0.50857    0.15673   1.00
C6       0.25420    0.47154    0.14695   1.00
C6       0.23871    0.53073    0.13387   1.00
C6       0.22652    0.46995    0.11785   1.00
C6       0.21666    0.50759    0.10954   1.00
H3       0.26811    0.44700    0.16035   1.00
H3       0.23799    0.56197    0.13494   1.00
H3       0.21480    0.44425    0.10423   1.00
H3       0.19576    0.51713    0.08811   1.00
C4       0.24980    0.74997    0.02085   1.00
C4       0.25020    0.75003    -0.02085   1.00
C3a      0.21935    0.76837    0.04254   1.00
C3       0.22694    0.72370    -0.04232   1.00
C3       0.27967    0.73148    0.04232   1.00
C3a      0.27403    0.77644    -0.04254   1.00
C2       0.25001    0.74992    0.10512   1.00
C2       0.25002    0.74992    -0.10512   1.00
C3       0.21998    0.76811    0.08405   1.00
C3       0.22680    0.72376    -0.08363   1.00
C3       0.27979    0.73158    0.08363   1.00
C3       0.27350    0.77601    -0.08405   1.00
C5       0.18604    0.78909    0.02228   1.00
H1       0.20846    0.70321    -0.02691   1.00
H1       0.19688    0.78231    0.10021   1.00
H1       0.20838    0.70324    -0.09901   1.00
H1       0.30336    0.71726    0.09901   1.00
H1       0.29152    0.79628    -0.10021   1.00
C5       0.29994    0.80591    -0.02228   1.00
H1       0.30328    0.71720    0.02691   1.00
H2       0.30692    0.83020    -0.04256   1.00
H2       0.28424    0.81932    0.00269   1.00
H2       0.17233    0.81033    0.04256   1.00
H2       0.19719    0.80647    -0.00269   1.00
N1       0.33605    0.78768    -0.00857   1.00
C6       0.36444    0.77275    -0.03073   1.00
C6       0.34744    0.78380    0.02846   1.00
C6       0.39410    0.75867    -0.00759   1.00
C6       0.38330    0.76570    0.03005   1.00
H3       0.36362    0.77175    -0.06197   1.00
H3       0.33059    0.79324    0.05300   1.00
H3       0.42066    0.74485    -0.01713   1.00
H3       0.39972    0.75842    0.05575   1.00
N1       0.15673    0.76121    0.00857   1.00
C6       0.14695    0.75420    -0.02846   1.00
C6       0.13387    0.73871    0.03073   1.00
C6       0.11785    0.72652    -0.03005   1.00
C6       0.10954    0.71666    0.00759   1.00
H3       0.16035    0.76811    -0.05300   1.00
H3       0.13494    0.73799    0.06197   1.00
H3       0.10423    0.71480    -0.05575   1.00
H3       0.08811    0.69576    0.01713   1.00
C4       0.74980    0.25003    0.47915   1.00
C4       0.75020    0.24997    0.52085   1.00
C3a      0.71935    0.23163    0.45746   1.00
C3       0.72694    0.27630    0.54232   1.00
C3       0.77967    0.26852    0.45768   1.00
C3a      0.77403    0.22356    0.54254   1.00
C2       0.75001    0.25008    0.39488   1.00
C2       0.75002    0.25008    0.60512   1.00
C3       0.71998    0.23189    0.41595   1.00
C3       0.72680    0.27624    0.58363   1.00
C3       0.77979    0.26842    0.41637   1.00
C3       0.77350    0.22399    0.58405   1.00
C5       0.68604    0.21091    0.47772   1.00
H1       0.70846    0.29679    0.52691   1.00
H1       0.69688    0.21769    0.39979   1.00
H1       0.70838    0.29676    0.59901   1.00
H1       0.80336    0.28274    0.40099   1.00
H1       0.79152    0.20372    0.60021   1.00
C5       0.79994    0.19409    0.52228   1.00
H1       0.80328    0.28280    0.47309   1.00
H2       0.80692    0.16980    0.54256   1.00
H2       0.78424    0.18068    0.49731   1.00
H2       0.67233    0.18967    0.45744   1.00
H2       0.69719    0.19353    0.50269   1.00
N1       0.83605    0.21232    0.50857   1.00
C6       0.86444    0.22725    0.53073   1.00
C6       0.84744    0.21620    0.47154   1.00
C6       0.89410    0.24133    0.50759   1.00
C6       0.88330    0.23430    0.46995   1.00
H3       0.86362    0.22825    0.56197   1.00
H3       0.83059    0.20676    0.44700   1.00
H3       0.92066    0.25515    0.51713   1.00
H3       0.89972    0.24158    0.44425   1.00
N1       0.65673    0.23879    0.49143   1.00
C6       0.64695    0.24580    0.52846   1.00
C6       0.63387    0.26129    0.46927   1.00
C6       0.61785    0.27348    0.53005   1.00
C6       0.60954    0.28334    0.49241   1.00
H3       0.66035    0.23189    0.55300   1.00
H3       0.63494    0.26201    0.43803   1.00
H3       0.60423    0.28520    0.55575   1.00
H3       0.58811    0.30424    0.48287   1.00
C4       0.75003    0.47915    0.24980   1.00
C4       0.74997    0.52085    0.25020   1.00
C3a      0.73163    0.45746    0.21935   1.00
C3       0.77630    0.54232    0.22694   1.00
C3       0.76852    0.45768    0.27967   1.00
C3a      0.72356    0.54254    0.27403   1.00
C2       0.75008    0.39488    0.25001   1.00
C2       0.75008    0.60512    0.25002   1.00
C3       0.73189    0.41595    0.21998   1.00
C3       0.77624    0.58363    0.22680   1.00
C3       0.76842    0.41637    0.27979   1.00
C3       0.72399    0.58405    0.27350   1.00
C5       0.71091    0.47772    0.18604   1.00
H1       0.79679    0.52691    0.20846   1.00
H1       0.71769    0.39979    0.19688   1.00
H1       0.79676    0.59901    0.20838   1.00
H1       0.78274    0.40099    0.30336   1.00
H1       0.70372    0.60021    0.29152   1.00
C5       0.69409    0.52228    0.29994   1.00
H1       0.78280    0.47309    0.30328   1.00
H2       0.66980    0.54256    0.30692   1.00
H2       0.68068    0.49731    0.28424   1.00
H2       0.68967    0.45744    0.17233   1.00
H2       0.69353    0.50269    0.19719   1.00
N1       0.71232    0.50857    0.33605   1.00
C6       0.72725    0.53073    0.36444   1.00
C6       0.71620    0.47154    0.34744   1.00
C6       0.74133    0.50759    0.39410   1.00
C6       0.73430    0.46995    0.38330   1.00
H3       0.72825    0.56197    0.36362   1.00
H3       0.70676    0.44700    0.33059   1.00
H3       0.75515    0.51713    0.42066   1.00
H3       0.74158    0.44425    0.39972   1.00
N1       0.73879    0.49143    0.15673   1.00
C6       0.74580    0.52846    0.14695   1.00
C6       0.76129    0.46927    0.13387   1.00
C6       0.77348    0.53005    0.11785   1.00
C6       0.78334    0.49241    0.10954   1.00
H3       0.73189    0.55300    0.16035   1.00
H3       0.76201    0.43803    0.13494   1.00
H3       0.78520    0.55575    0.10423   1.00
H3       0.80424    0.48287    0.08811   1.00
C4       0.52085    0.24980    0.24997   1.00
C4       0.47915    0.25020    0.25003   1.00
C3a      0.54254    0.21935    0.26837   1.00
C3       0.45768    0.22694    0.22370   1.00
C3       0.54232    0.27967    0.23148   1.00
C3a      0.45746    0.27403    0.27644   1.00
C2       0.60512    0.25001    0.24992   1.00
C2       0.39488    0.25002    0.24992   1.00
C3       0.58405    0.21998    0.26811   1.00
C3       0.41637    0.22680    0.22376   1.00
C3       0.58363    0.27979    0.23158   1.00
C3       0.41595    0.27350    0.27601   1.00
C5       0.52228    0.18604    0.28909   1.00
H1       0.47309    0.20846    0.20321   1.00
H1       0.60021    0.19688    0.28231   1.00
H1       0.40099    0.20838    0.20324   1.00
H1       0.59901    0.30336    0.21726   1.00
H1       0.39979    0.29152    0.29628   1.00
C5       0.47772    0.29994    0.30591   1.00
H1       0.52691    0.30328    0.21720   1.00
H2       0.45744    0.30692    0.33020   1.00
H2       0.50269    0.28424    0.31932   1.00
H2       0.54256    0.17233    0.31033   1.00
H2       0.49731    0.19719    0.30647   1.00
N1       0.49143    0.33605    0.28768   1.00
C6       0.46927    0.36444    0.27275   1.00
C6       0.52846    0.34744    0.28380   1.00
C6       0.49241    0.39410    0.25867   1.00
C6       0.53005    0.38330    0.26570   1.00
H3       0.43803    0.36362    0.27175   1.00
H3       0.55300    0.33059    0.29324   1.00
H3       0.48287    0.42066    0.24485   1.00
H3       0.55575    0.39972    0.25842   1.00
N1       0.50857    0.15673    0.26121   1.00
C6       0.47154    0.14695    0.25420   1.00
C6       0.53073    0.13387    0.23871   1.00
C6       0.46995    0.11785    0.22652   1.00
C6       0.50759    0.10954    0.21666   1.00
H3       0.44700    0.16035    0.26811   1.00
H3       0.56197    0.13494    0.23799   1.00
H3       0.44425    0.10423    0.21480   1.00
H3       0.51713    0.08811    0.19576   1.00
C4       0.97915    0.24980    0.25003   1.00
C4       1.02085    0.25020    0.24997   1.00
C3a      0.95746    0.21935    0.23163   1.00
C3       1.04232    0.22694    0.27630   1.00
C3       0.95768    0.27967    0.26852   1.00
C3a      1.04254    0.27403    0.22356   1.00
C2       0.89488    0.25001    0.25008   1.00
C2       1.10512    0.25002    0.25008   1.00
C3       0.91595    0.21998    0.23189   1.00
C3       1.08363    0.22680    0.27624   1.00
C3       0.91637    0.27979    0.26842   1.00
C3       1.08405    0.27350    0.22399   1.00
C5       0.97772    0.18604    0.21091   1.00
H1       1.02691    0.20846    0.29679   1.00
H1       0.89979    0.19688    0.21769   1.00
H1       1.09901    0.20838    0.29676   1.00
H1       0.90099    0.30336    0.28274   1.00
H1       1.10021    0.29152    0.20372   1.00
C5       1.02228    0.29994    0.19409   1.00
H1       0.97309    0.30328    0.28280   1.00
H2       1.04256    0.30692    0.16980   1.00
H2       0.99731    0.28424    0.18068   1.00
H2       0.95744    0.17233    0.18967   1.00
H2       1.00269    0.19719    0.19353   1.00
N1       1.00857    0.33605    0.21232   1.00
C6       1.03073    0.36444    0.22725   1.00
C6       0.97154    0.34744    0.21620   1.00
C6       1.00759    0.39410    0.24133   1.00
C6       0.96995    0.38330    0.23430   1.00
H3       1.06197    0.36362    0.22825   1.00
H3       0.94700    0.33059    0.20676   1.00
H3       1.01713    0.42066    0.25515   1.00
H3       0.94425    0.39972    0.24158   1.00
N1       0.99143    0.15673    0.23879   1.00
C6       1.02846    0.14695    0.24580   1.00
C6       0.96927    0.13387    0.26129   1.00
C6       1.03005    0.11785    0.27348   1.00
C6       0.99241    0.10954    0.28334   1.00
H3       1.05300    0.16035    0.23189   1.00
H3       0.93803    0.13494    0.26201   1.00
H3       1.05575    0.10423    0.28520   1.00
H3       0.98287    0.08811    0.30424   1.00
C4       0.74997    0.02085    0.24980   1.00
C4       0.75003    -0.02085   0.25020   1.00
C3a      0.76837    0.04254    0.21935   1.00
C3       0.72370    -0.04232   0.22694   1.00
C3       0.73148    0.04232    0.27967   1.00
C3a      0.77644    -0.04254   0.27403   1.00
C2       0.74992    0.10512    0.25001   1.00
C2       0.74992    -0.10512   0.25002   1.00
C3       0.76811    0.08405    0.21998   1.00
C3       0.72376    -0.08363   0.22680   1.00
C3       0.73158    0.08363    0.27979   1.00
C3       0.77601    -0.08405   0.27350   1.00
C5       0.78909    0.02228    0.18604   1.00
H1       0.70321    -0.02691   0.20846   1.00
H1       0.78231    0.10021    0.19688   1.00
H1       0.70324    -0.09901   0.20838   1.00
H1       0.71726    0.09901    0.30336   1.00
H1       0.79628    -0.10021   0.29152   1.00
C5       0.80591    -0.02228   0.29994   1.00
H1       0.71720    0.02691    0.30328   1.00
H2       0.83020    -0.04256   0.30692   1.00
H2       0.81932    0.00269    0.28424   1.00
H2       0.81033    0.04256    0.17233   1.00
H2       0.80647    -0.00269   0.19719   1.00
N1       0.78768    -0.00857   0.33605   1.00
C6       0.77275    -0.03073   0.36444   1.00
C6       0.78380    0.02846    0.34744   1.00
C6       0.75867    -0.00759   0.39410   1.00
C6       0.76570    0.03005    0.38330   1.00
H3       0.77175    -0.06197   0.36362   1.00
H3       0.79324    0.05300    0.33059   1.00
H3       0.74485    -0.01713   0.42066   1.00
H3       0.75842    0.05575    0.39972   1.00
N1       0.76121    0.00857    0.15673   1.00
C6       0.75420    -0.02846   0.14695   1.00
C6       0.73871    0.03073    0.13387   1.00
C6       0.72652    -0.03005   0.11785   1.00
C6       0.71666    0.00759    0.10954   1.00
H3       0.76811    -0.05300   0.16035   1.00
H3       0.73799    0.06197    0.13494   1.00
H3       0.71480    -0.05575   0.10423   1.00
H3       0.69576    0.01713    0.08811   1.00
C4       0.74980    0.24997    0.02085   1.00
C4       0.75020    0.25003    -0.02085   1.00
C3a      0.71935    0.26837    0.04254   1.00
C3       0.72694    0.22370    -0.04232   1.00
C3       0.77967    0.23148    0.04232   1.00
C3a      0.77403    0.27644    -0.04254   1.00
C2       0.75001    0.24992    0.10512   1.00
C2       0.75002    0.24992    -0.10512   1.00
C3       0.71998    0.26811    0.08405   1.00
C3       0.72680    0.22376    -0.08363   1.00
C3       0.77979    0.23158    0.08363   1.00
C3       0.77350    0.27601    -0.08405   1.00
C5       0.68604    0.28909    0.02228   1.00
H1       0.70846    0.20321    -0.02691   1.00
H1       0.69688    0.28231    0.10021   1.00
H1       0.70838    0.20324    -0.09901   1.00
H1       0.80336    0.21726    0.09901   1.00
H1       0.79152    0.29628    -0.10021   1.00
C5       0.79994    0.30591    -0.02228   1.00
H1       0.80328    0.21720    0.02691   1.00
H2       0.80692    0.33020    -0.04256   1.00
H2       0.78424    0.31932    0.00269   1.00
H2       0.67233    0.31033    0.04256   1.00
H2       0.69719    0.30647    -0.00269   1.00
N1       0.83605    0.28768    -0.00857   1.00
C6       0.86444    0.27275    -0.03073   1.00
C6       0.84744    0.28380    0.02846   1.00
C6       0.89410    0.25867    -0.00759   1.00
C6       0.88330    0.26570    0.03005   1.00
H3       0.86362    0.27175    -0.06197   1.00
H3       0.83059    0.29324    0.05300   1.00
H3       0.92066    0.24485    -0.01713   1.00
H3       0.89972    0.25842    0.05575   1.00
N1       0.65673    0.26121    0.00857   1.00
C6       0.64695    0.25420    -0.02846   1.00
C6       0.63387    0.23871    0.03073   1.00
C6       0.61785    0.22652    -0.03005   1.00
C6       0.60954    0.21666    0.00759   1.00
H3       0.66035    0.26811    -0.05300   1.00
H3       0.63494    0.23799    0.06197   1.00
H3       0.60423    0.21480    -0.05575   1.00
H3       0.58811    0.19576    0.01713   1.00
C4       0.99980    1.00003    1.22915   1.00
C4       1.00020    0.99997    1.27085   1.00
C3a      0.96935    0.98163    1.20746   1.00
C3       0.97694    1.02630    1.29232   1.00
C3       1.02967    1.01852    1.20768   1.00
C3a      1.02403    0.97356    1.29254   1.00
C2       1.00001    1.00008    1.14488   1.00
C2       1.00002    1.00008    1.35512   1.00
C3       0.96998    0.98189    1.16595   1.00
C3       0.97680    1.02624    1.33363   1.00
C3       1.02979    1.01842    1.16637   1.00
C3       1.02350    0.97399    1.33405   1.00
C5       0.93604    0.96091    1.22772   1.00
H1       0.95846    1.04679    1.27691   1.00
H1       0.94688    0.96769    1.14979   1.00
H1       0.95838    1.04676    1.34901   1.00
H1       1.05336    1.03274    1.15099   1.00
H1       1.04152    0.95372    1.35021   1.00
C5       1.04994    0.94409    1.27228   1.00
H1       1.05328    1.03280    1.22309   1.00
H2       1.05692    0.91980    1.29256   1.00
H2       1.03424    0.93068    1.24731   1.00
H2       0.92233    0.93967    1.20744   1.00
H2       0.94719    0.94353    1.25269   1.00
N1       1.08605    0.96232    1.25857   1.00
C6       1.11444    0.97725    1.28073   1.00
C6       1.09744    0.96620    1.22154   1.00
C6       1.14410    0.99133    1.25759   1.00
C6       1.13330    0.98430    1.21995   1.00
H3       1.11362    0.97825    1.31197   1.00
H3       1.08059    0.95676    1.19700   1.00
H3       1.17066    1.00515    1.26713   1.00
H3       1.14972    0.99158    1.19425   1.00
N1       0.90673    0.98879    1.24143   1.00
C6       0.89695    0.99580    1.27846   1.00
C6       0.88387    1.01129    1.21927   1.00
C6       0.86785    1.02348    1.28005   1.00
C6       0.85954    1.03334    1.24241   1.00
H3       0.91035    0.98189    1.30300   1.00
H3       0.88494    1.01201    1.18803   1.00
H3       0.85423    1.03520    1.30575   1.00
H3       0.83811    1.05424    1.23287   1.00
C4       1.00003    1.22915    0.99980   1.00
C4       0.99997    1.27085    1.00020   1.00
C3a      0.98163    1.20746    0.96935   1.00
C3       1.02630    1.29232    0.97694   1.00
C3       1.01852    1.20768    1.02967   1.00
C3a      0.97356    1.29254    1.02403   1.00
C2       1.00008    1.14488    1.00001   1.00
C2       1.00008    1.35512    1.00002   1.00
C3       0.98189    1.16595    0.96998   1.00
C3       1.02624    1.33363    0.97680   1.00
C3       1.01842    1.16637    1.02979   1.00
C3       0.97399    1.33405    1.02350   1.00
C5       0.96091    1.22772    0.93604   1.00
H1       1.04679    1.27691    0.95846   1.00
H1       0.96769    1.14979    0.94688   1.00
H1       1.04676    1.34901    0.95838   1.00
H1       1.03274    1.15099    1.05336   1.00
H1       0.95372    1.35021    1.04152   1.00
C5       0.94409    1.27228    1.04994   1.00
H1       1.03280    1.22309    1.05328   1.00
H2       0.91980    1.29256    1.05692   1.00
H2       0.93068    1.24731    1.03424   1.00
H2       0.93967    1.20744    0.92233   1.00
H2       0.94353    1.25269    0.94719   1.00
N1       0.96232    1.25857    1.08605   1.00
C6       0.97725    1.28073    1.11444   1.00
C6       0.96620    1.22154    1.09744   1.00
C6       0.99133    1.25759    1.14410   1.00
C6       0.98430    1.21995    1.13330   1.00
H3       0.97825    1.31197    1.11362   1.00
H3       0.95676    1.19700    1.08059   1.00
H3       1.00515    1.26713    1.17066   1.00
H3       0.99158    1.19425    1.14972   1.00
N1       0.98879    1.24143    0.90673   1.00
C6       0.99580    1.27846    0.89695   1.00
C6       1.01129    1.21927    0.88387   1.00
C6       1.02348    1.28005    0.86785   1.00
C6       1.03334    1.24241    0.85954   1.00
H3       0.98189    1.30300    0.91035   1.00
H3       1.01201    1.18803    0.88494   1.00
H3       1.03520    1.30575    0.85423   1.00
H3       1.05424    1.23287    0.83811   1.00
C4       0.77085    0.99980    0.99997   1.00
C4       0.72915    1.00020    1.00003   1.00
C3a      0.79254    0.96935    1.01837   1.00
C3       0.70768    0.97694    0.97370   1.00
C3       0.79232    1.02967    0.98148   1.00
C3a      0.70746    1.02403    1.02644   1.00
C2       0.85512    1.00001    0.99992   1.00
C2       0.64488    1.00002    0.99992   1.00
C3       0.83405    0.96998    1.01811   1.00
C3       0.66637    0.97680    0.97376   1.00
C3       0.83363    1.02979    0.98158   1.00
C3       0.66595    1.02350    1.02601   1.00
C5       0.77228    0.93604    1.03909   1.00
H1       0.72309    0.95846    0.95321   1.00
H1       0.85021    0.94688    1.03231   1.00
H1       0.65099    0.95838    0.95324   1.00
H1       0.84901    1.05336    0.96726   1.00
H1       0.64979    1.04152    1.04628   1.00
C5       0.72772    1.04994    1.05591   1.00
H1       0.77691    1.05328    0.96720   1.00
H2       0.70744    1.05692    1.08020   1.00
H2       0.75269    1.03424    1.06932   1.00
H2       0.79256    0.92233    1.06033   1.00
H2       0.74731    0.94719    1.05647   1.00
N1       0.74143    1.08605    1.03768   1.00
C6       0.71927    1.11444    1.02275   1.00
C6       0.77846    1.09744    1.03380   1.00
C6       0.74241    1.14410    1.00867   1.00
C6       0.78005    1.13330    1.01570   1.00
H3       0.68803    1.11362    1.02175   1.00
H3       0.80300    1.08059    1.04324   1.00
H3       0.73287    1.17066    0.99485   1.00
H3       0.80575    1.14972    1.00842   1.00
N1       0.75857    0.90673    1.01121   1.00
C6       0.72154    0.89695    1.00420   1.00
C6       0.78073    0.88387    0.98871   1.00
C6       0.71995    0.86785    0.97652   1.00
C6       0.75759    0.85954    0.96666   1.00
H3       0.69700    0.91035    1.01811   1.00
H3       0.81197    0.88494    0.98799   1.00
H3       0.69425    0.85423    0.96480   1.00
H3       0.76713    0.83811    0.94576   1.00
C4       1.22915    0.99980    1.00003   1.00
C4       1.27085    1.00020    0.99997   1.00
C3a      1.20746    0.96935    0.98163   1.00
C3       1.29232    0.97694    1.02630   1.00
C3       1.20768    1.02967    1.01852   1.00
C3a      1.29254    1.02403    0.97356   1.00
C2       1.14488    1.00001    1.00008   1.00
C2       1.35512    1.00002    1.00008   1.00
C3       1.16595    0.96998    0.98189   1.00
C3       1.33363    0.97680    1.02624   1.00
C3       1.16637    1.02979    1.01842   1.00
C3       1.33405    1.02350    0.97399   1.00
C5       1.22772    0.93604    0.96091   1.00
H1       1.27691    0.95846    1.04679   1.00
H1       1.14979    0.94688    0.96769   1.00
H1       1.34901    0.95838    1.04676   1.00
H1       1.15099    1.05336    1.03274   1.00
H1       1.35021    1.04152    0.95372   1.00
C5       1.27228    1.04994    0.94409   1.00
H1       1.22309    1.05328    1.03280   1.00
H2       1.29256    1.05692    0.91980   1.00
H2       1.24731    1.03424    0.93068   1.00
H2       1.20744    0.92233    0.93967   1.00
H2       1.25269    0.94719    0.94353   1.00
N1       1.25857    1.08605    0.96232   1.00
C6       1.28073    1.11444    0.97725   1.00
C6       1.22154    1.09744    0.96620   1.00
C6       1.25759    1.14410    0.99133   1.00
C6       1.21995    1.13330    0.98430   1.00
H3       1.31197    1.11362    0.97825   1.00
H3       1.19700    1.08059    0.95676   1.00
H3       1.26713    1.17066    1.00515   1.00
H3       1.19425    1.14972    0.99158   1.00
N1       1.24143    0.90673    0.98879   1.00
C6       1.27846    0.89695    0.99580   1.00
C6       1.21927    0.88387    1.01129   1.00
C6       1.28005    0.86785    1.02348   1.00
C6       1.24241    0.85954    1.03334   1.00
H3       1.30300    0.91035    0.98189   1.00
H3       1.18803    0.88494    1.01201   1.00
H3       1.30575    0.85423    1.03520   1.00
H3       1.23287    0.83811    1.05424   1.00
C4       0.99997    0.77085    0.99980   1.00
C4       1.00003    0.72915    1.00020   1.00
C3a      1.01837    0.79254    0.96935   1.00
C3       0.97370    0.70768    0.97694   1.00
C3       0.98148    0.79232    1.02967   1.00
C3a      1.02644    0.70746    1.02403   1.00
C2       0.99992    0.85512    1.00001   1.00
C2       0.99992    0.64488    1.00002   1.00
C3       1.01811    0.83405    0.96998   1.00
C3       0.97376    0.66637    0.97680   1.00
C3       0.98158    0.83363    1.02979   1.00
C3       1.02601    0.66595    1.02350   1.00
C5       1.03909    0.77228    0.93604   1.00
H1       0.95321    0.72309    0.95846   1.00
H1       1.03231    0.85021    0.94688   1.00
H1       0.95324    0.65099    0.95838   1.00
H1       0.96726    0.84901    1.05336   1.00
H1       1.04628    0.64979    1.04152   1.00
C5       1.05591    0.72772    1.04994   1.00
H1       0.96720    0.77691    1.05328   1.00
H2       1.08020    0.70744    1.05692   1.00
H2       1.06932    0.75269    1.03424   1.00
H2       1.06033    0.79256    0.92233   1.00
H2       1.05647    0.74731    0.94719   1.00
N1       1.03768    0.74143    1.08605   1.00
C6       1.02275    0.71927    1.11444   1.00
C6       1.03380    0.77846    1.09744   1.00
C6       1.00867    0.74241    1.14410   1.00
C6       1.01570    0.78005    1.13330   1.00
H3       1.02175    0.68803    1.11362   1.00
H3       1.04324    0.80300    1.08059   1.00
H3       0.99485    0.73287    1.17066   1.00
H3       1.00842    0.80575    1.14972   1.00
N1       1.01121    0.75857    0.90673   1.00
C6       1.00420    0.72154    0.89695   1.00
C6       0.98871    0.78073    0.88387   1.00
C6       0.97652    0.71995    0.86785   1.00
C6       0.96666    0.75759    0.85954   1.00
H3       1.01811    0.69700    0.91035   1.00
H3       0.98799    0.81197    0.88494   1.00
H3       0.96480    0.69425    0.85423   1.00
H3       0.94576    0.76713    0.83811   1.00
C4       0.99980    0.99997    0.77085   1.00
C4       1.00020    1.00003    0.72915   1.00
C3a      0.96935    1.01837    0.79254   1.00
C3       0.97694    0.97370    0.70768   1.00
C3       1.02967    0.98148    0.79232   1.00
C3a      1.02403    1.02644    0.70746   1.00
C2       1.00001    0.99992    0.85512   1.00
C2       1.00002    0.99992    0.64488   1.00
C3       0.96998    1.01811    0.83405   1.00
C3       0.97680    0.97376    0.66637   1.00
C3       1.02979    0.98158    0.83363   1.00
C3       1.02350    1.02601    0.66595   1.00
C5       0.93604    1.03909    0.77228   1.00
H1       0.95846    0.95321    0.72309   1.00
H1       0.94688    1.03231    0.85021   1.00
H1       0.95838    0.95324    0.65099   1.00
H1       1.05336    0.96726    0.84901   1.00
H1       1.04152    1.04628    0.64979   1.00
C5       1.04994    1.05591    0.72772   1.00
H1       1.05328    0.96720    0.77691   1.00
H2       1.05692    1.08020    0.70744   1.00
H2       1.03424    1.06932    0.75269   1.00
H2       0.92233    1.06033    0.79256   1.00
H2       0.94719    1.05647    0.74731   1.00
N1       1.08605    1.03768    0.74143   1.00
C6       1.11444    1.02275    0.71927   1.00
C6       1.09744    1.03380    0.77846   1.00
C6       1.14410    1.00867    0.74241   1.00
C6       1.13330    1.01570    0.78005   1.00
H3       1.11362    1.02175    0.68803   1.00
H3       1.08059    1.04324    0.80300   1.00
H3       1.17066    0.99485    0.73287   1.00
H3       1.14972    1.00842    0.80575   1.00
N1       0.90673    1.01121    0.75857   1.00
C6       0.89695    1.00420    0.72154   1.00
C6       0.88387    0.98871    0.78073   1.00
C6       0.86785    0.97652    0.71995   1.00
C6       0.85954    0.96666    0.75759   1.00
H3       0.91035    1.01811    0.69700   1.00
H3       0.88494    0.98799    0.81197   1.00
H3       0.85423    0.96480    0.69425   1.00
H3       0.83811    0.94576    0.76713   1.00
C4       0.49980    0.50003    1.22915   1.00
C4       0.50020    0.49997    1.27085   1.00
C3a      0.46935    0.48163    1.20746   1.00
C3       0.47694    0.52630    1.29232   1.00
C3       0.52967    0.51852    1.20768   1.00
C3a      0.52403    0.47356    1.29254   1.00
C2       0.50001    0.50008    1.14488   1.00
C2       0.50002    0.50008    1.35512   1.00
C3       0.46998    0.48189    1.16595   1.00
C3       0.47680    0.52624    1.33363   1.00
C3       0.52979    0.51842    1.16637   1.00
C3       0.52350    0.47399    1.33405   1.00
C5       0.43604    0.46091    1.22772   1.00
H1       0.45846    0.54679    1.27691   1.00
H1       0.44688    0.46769    1.14979   1.00
H1       0.45838    0.54676    1.34901   1.00
H1       0.55336    0.53274    1.15099   1.00
H1       0.54152    0.45372    1.35021   1.00
C5       0.54994    0.44409    1.27228   1.00
H1       0.55328    0.53280    1.22309   1.00
H2       0.55692    0.41980    1.29256   1.00
H2       0.53424    0.43068    1.24731   1.00
H2       0.42233    0.43967    1.20744   1.00
H2       0.44719    0.44353    1.25269   1.00
N1       0.58605    0.46232    1.25857   1.00
C6       0.61444    0.47725    1.28073   1.00
C6       0.59744    0.46620    1.22154   1.00
C6       0.64410    0.49133    1.25759   1.00
C6       0.63330    0.48430    1.21995   1.00
H3       0.61362    0.47825    1.31197   1.00
H3       0.58059    0.45676    1.19700   1.00
H3       0.67066    0.50515    1.26713   1.00
H3       0.64972    0.49158    1.19425   1.00
N1       0.40673    0.48879    1.24143   1.00
C6       0.39695    0.49580    1.27846   1.00
C6       0.38387    0.51129    1.21927   1.00
C6       0.36785    0.52348    1.28005   1.00
C6       0.35954    0.53334    1.24241   1.00
H3       0.41035    0.48189    1.30300   1.00
H3       0.38494    0.51201    1.18803   1.00
H3       0.35423    0.53520    1.30575   1.00
H3       0.33811    0.55424    1.23287   1.00
C4       0.50003    0.72915    0.99980   1.00
C4       0.49997    0.77085    1.00020   1.00
C3a      0.48163    0.70746    0.96935   1.00
C3       0.52630    0.79232    0.97694   1.00
C3       0.51852    0.70768    1.02967   1.00
C3a      0.47356    0.79254    1.02403   1.00
C2       0.50008    0.64488    1.00001   1.00
C2       0.50008    0.85512    1.00002   1.00
C3       0.48189    0.66595    0.96998   1.00
C3       0.52624    0.83363    0.97680   1.00
C3       0.51842    0.66637    1.02979   1.00
C3       0.47399    0.83405    1.02350   1.00
C5       0.46091    0.72772    0.93604   1.00
H1       0.54679    0.77691    0.95846   1.00
H1       0.46769    0.64979    0.94688   1.00
H1       0.54676    0.84901    0.95838   1.00
H1       0.53274    0.65099    1.05336   1.00
H1       0.45372    0.85021    1.04152   1.00
C5       0.44409    0.77228    1.04994   1.00
H1       0.53280    0.72309    1.05328   1.00
H2       0.41980    0.79256    1.05692   1.00
H2       0.43068    0.74731    1.03424   1.00
H2       0.43967    0.70744    0.92233   1.00
H2       0.44353    0.75269    0.94719   1.00
N1       0.46232    0.75857    1.08605   1.00
C6       0.47725    0.78073    1.11444   1.00
C6       0.46620    0.72154    1.09744   1.00
C6       0.49133    0.75759    1.14410   1.00
C6       0.48430    0.71995    1.13330   1.00
H3       0.47825    0.81197    1.11362   1.00
H3       0.45676    0.69700    1.08059   1.00
H3       0.50515    0.76713    1.17066   1.00
H3       0.49158    0.69425    1.14972   1.00
N1       0.48879    0.74143    0.90673   1.00
C6       0.49580    0.77846    0.89695   1.00
C6       0.51129    0.71927    0.88387   1.00
C6       0.52348    0.78005    0.86785   1.00
C6       0.53334    0.74241    0.85954   1.00
H3       0.48189    0.80300    0.91035   1.00
H3       0.51201    0.68803    0.88494   1.00
H3       0.53520    0.80575    0.85423   1.00
H3       0.55424    0.73287    0.83811   1.00
C4       0.27085    0.49980    0.99997   1.00
C4       0.22915    0.50020    1.00003   1.00
C3a      0.29254    0.46935    1.01837   1.00
C3       0.20768    0.47694    0.97370   1.00
C3       0.29232    0.52967    0.98148   1.00
C3a      0.20746    0.52403    1.02644   1.00
C2       0.35512    0.50001    0.99992   1.00
C2       0.14488    0.50002    0.99992   1.00
C3       0.33405    0.46998    1.01811   1.00
C3       0.16637    0.47680    0.97376   1.00
C3       0.33363    0.52979    0.98158   1.00
C3       0.16595    0.52350    1.02601   1.00
C5       0.27228    0.43604    1.03909   1.00
H1       0.22309    0.45846    0.95321   1.00
H1       0.35021    0.44688    1.03231   1.00
H1       0.15099    0.45838    0.95324   1.00
H1       0.34901    0.55336    0.96726   1.00
H1       0.14979    0.54152    1.04628   1.00
C5       0.22772    0.54994    1.05591   1.00
H1       0.27691    0.55328    0.96720   1.00
H2       0.20744    0.55692    1.08020   1.00
H2       0.25269    0.53424    1.06932   1.00
H2       0.29256    0.42233    1.06033   1.00
H2       0.24731    0.44719    1.05647   1.00
N1       0.24143    0.58605    1.03768   1.00
C6       0.21927    0.61444    1.02275   1.00
C6       0.27846    0.59744    1.03380   1.00
C6       0.24241    0.64410    1.00867   1.00
C6       0.28005    0.63330    1.01570   1.00
H3       0.18803    0.61362    1.02175   1.00
H3       0.30300    0.58059    1.04324   1.00
H3       0.23287    0.67066    0.99485   1.00
H3       0.30575    0.64972    1.00842   1.00
N1       0.25857    0.40673    1.01121   1.00
C6       0.22154    0.39695    1.00420   1.00
C6       0.28073    0.38387    0.98871   1.00
C6       0.21995    0.36785    0.97652   1.00
C6       0.25759    0.35954    0.96666   1.00
H3       0.19700    0.41035    1.01811   1.00
H3       0.31197    0.38494    0.98799   1.00
H3       0.19425    0.35423    0.96480   1.00
H3       0.26713    0.33811    0.94576   1.00
C4       0.72915    0.49980    1.00003   1.00
C4       0.77085    0.50020    0.99997   1.00
C3a      0.70746    0.46935    0.98163   1.00
C3       0.79232    0.47694    1.02630   1.00
C3       0.70768    0.52967    1.01852   1.00
C3a      0.79254    0.52403    0.97356   1.00
C2       0.64488    0.50001    1.00008   1.00
C2       0.85512    0.50002    1.00008   1.00
C3       0.66595    0.46998    0.98189   1.00
C3       0.83363    0.47680    1.02624   1.00
C3       0.66637    0.52979    1.01842   1.00
C3       0.83405    0.52350    0.97399   1.00
C5       0.72772    0.43604    0.96091   1.00
H1       0.77691    0.45846    1.04679   1.00
H1       0.64979    0.44688    0.96769   1.00
H1       0.84901    0.45838    1.04676   1.00
H1       0.65099    0.55336    1.03274   1.00
H1       0.85021    0.54152    0.95372   1.00
C5       0.77228    0.54994    0.94409   1.00
H1       0.72309    0.55328    1.03280   1.00
H2       0.79256    0.55692    0.91980   1.00
H2       0.74731    0.53424    0.93068   1.00
H2       0.70744    0.42233    0.93967   1.00
H2       0.75269    0.44719    0.94353   1.00
N1       0.75857    0.58605    0.96232   1.00
C6       0.78073    0.61444    0.97725   1.00
C6       0.72154    0.59744    0.96620   1.00
C6       0.75759    0.64410    0.99133   1.00
C6       0.71995    0.63330    0.98430   1.00
H3       0.81197    0.61362    0.97825   1.00
H3       0.69700    0.58059    0.95676   1.00
H3       0.76713    0.67066    1.00515   1.00
H3       0.69425    0.64972    0.99158   1.00
N1       0.74143    0.40673    0.98879   1.00
C6       0.77846    0.39695    0.99580   1.00
C6       0.71927    0.38387    1.01129   1.00
C6       0.78005    0.36785    1.02348   1.00
C6       0.74241    0.35954    1.03334   1.00
H3       0.80300    0.41035    0.98189   1.00
H3       0.68803    0.38494    1.01201   1.00
H3       0.80575    0.35423    1.03520   1.00
H3       0.73287    0.33811    1.05424   1.00
C4       0.49997    0.27085    0.99980   1.00
C4       0.50003    0.22915    1.00020   1.00
C3a      0.51837    0.29254    0.96935   1.00
C3       0.47370    0.20768    0.97694   1.00
C3       0.48148    0.29232    1.02967   1.00
C3a      0.52644    0.20746    1.02403   1.00
C2       0.49992    0.35512    1.00001   1.00
C2       0.49992    0.14488    1.00002   1.00
C3       0.51811    0.33405    0.96998   1.00
C3       0.47376    0.16637    0.97680   1.00
C3       0.48158    0.33363    1.02979   1.00
C3       0.52601    0.16595    1.02350   1.00
C5       0.53909    0.27228    0.93604   1.00
H1       0.45321    0.22309    0.95846   1.00
H1       0.53231    0.35021    0.94688   1.00
H1       0.45324    0.15099    0.95838   1.00
H1       0.46726    0.34901    1.05336   1.00
H1       0.54628    0.14979    1.04152   1.00
C5       0.55591    0.22772    1.04994   1.00
H1       0.46720    0.27691    1.05328   1.00
H2       0.58020    0.20744    1.05692   1.00
H2       0.56932    0.25269    1.03424   1.00
H2       0.56033    0.29256    0.92233   1.00
H2       0.55647    0.24731    0.94719   1.00
N1       0.53768    0.24143    1.08605   1.00
C6       0.52275    0.21927    1.11444   1.00
C6       0.53380    0.27846    1.09744   1.00
C6       0.50867    0.24241    1.14410   1.00
C6       0.51570    0.28005    1.13330   1.00
H3       0.52175    0.18803    1.11362   1.00
H3       0.54324    0.30300    1.08059   1.00
H3       0.49485    0.23287    1.17066   1.00
H3       0.50842    0.30575    1.14972   1.00
N1       0.51121    0.25857    0.90673   1.00
C6       0.50420    0.22154    0.89695   1.00
C6       0.48871    0.28073    0.88387   1.00
C6       0.47652    0.21995    0.86785   1.00
C6       0.46666    0.25759    0.85954   1.00
H3       0.51811    0.19700    0.91035   1.00
H3       0.48799    0.31197    0.88494   1.00
H3       0.46480    0.19425    0.85423   1.00
H3       0.44576    0.26713    0.83811   1.00
C4       0.49980    0.49997    0.77085   1.00
C4       0.50020    0.50003    0.72915   1.00
C3a      0.46935    0.51837    0.79254   1.00
C3       0.47694    0.47370    0.70768   1.00
C3       0.52967    0.48148    0.79232   1.00
C3a      0.52403    0.52644    0.70746   1.00
C2       0.50001    0.49992    0.85512   1.00
C2       0.50002    0.49992    0.64488   1.00
C3       0.46998    0.51811    0.83405   1.00
C3       0.47680    0.47376    0.66637   1.00
C3       0.52979    0.48158    0.83363   1.00
C3       0.52350    0.52601    0.66595   1.00
C5       0.43604    0.53909    0.77228   1.00
H1       0.45846    0.45321    0.72309   1.00
H1       0.44688    0.53231    0.85021   1.00
H1       0.45838    0.45324    0.65099   1.00
H1       0.55336    0.46726    0.84901   1.00
H1       0.54152    0.54628    0.64979   1.00
C5       0.54994    0.55591    0.72772   1.00
H1       0.55328    0.46720    0.77691   1.00
H2       0.55692    0.58020    0.70744   1.00
H2       0.53424    0.56932    0.75269   1.00
H2       0.42233    0.56033    0.79256   1.00
H2       0.44719    0.55647    0.74731   1.00
N1       0.58605    0.53768    0.74143   1.00
C6       0.61444    0.52275    0.71927   1.00
C6       0.59744    0.53380    0.77846   1.00
C6       0.64410    0.50867    0.74241   1.00
C6       0.63330    0.51570    0.78005   1.00
H3       0.61362    0.52175    0.68803   1.00
H3       0.58059    0.54324    0.80300   1.00
H3       0.67066    0.49485    0.73287   1.00
H3       0.64972    0.50842    0.80575   1.00
N1       0.40673    0.51121    0.75857   1.00
C6       0.39695    0.50420    0.72154   1.00
C6       0.38387    0.48871    0.78073   1.00
C6       0.36785    0.47652    0.71995   1.00
C6       0.35954    0.46666    0.75759   1.00
H3       0.41035    0.51811    0.69700   1.00
H3       0.38494    0.48799    0.81197   1.00
H3       0.35423    0.46480    0.69425   1.00
H3       0.33811    0.44576    0.76713   1.00
C4       0.49980    1.00003    0.72915   1.00
C4       0.50020    0.99997    0.77085   1.00
C3a      0.46935    0.98163    0.70746   1.00
C3       0.47694    1.02630    0.79232   1.00
C3       0.52967    1.01852    0.70768   1.00
C3a      0.52403    0.97356    0.79254   1.00
C2       0.50001    1.00008    0.64488   1.00
C2       0.50002    1.00008    0.85512   1.00
C3       0.46998    0.98189    0.66595   1.00
C3       0.47680    1.02624    0.83363   1.00
C3       0.52979    1.01842    0.66637   1.00
C3       0.52350    0.97399    0.83405   1.00
C5       0.43604    0.96091    0.72772   1.00
H1       0.45846    1.04679    0.77691   1.00
H1       0.44688    0.96769    0.64979   1.00
H1       0.45838    1.04676    0.84901   1.00
H1       0.55336    1.03274    0.65099   1.00
H1       0.54152    0.95372    0.85021   1.00
C5       0.54994    0.94409    0.77228   1.00
H1       0.55328    1.03280    0.72309   1.00
H2       0.55692    0.91980    0.79256   1.00
H2       0.53424    0.93068    0.74731   1.00
H2       0.42233    0.93967    0.70744   1.00
H2       0.44719    0.94353    0.75269   1.00
N1       0.58605    0.96232    0.75857   1.00
C6       0.61444    0.97725    0.78073   1.00
C6       0.59744    0.96620    0.72154   1.00
C6       0.64410    0.99133    0.75759   1.00
C6       0.63330    0.98430    0.71995   1.00
H3       0.61362    0.97825    0.81197   1.00
H3       0.58059    0.95676    0.69700   1.00
H3       0.67066    1.00515    0.76713   1.00
H3       0.64972    0.99158    0.69425   1.00
N1       0.40673    0.98879    0.74143   1.00
C6       0.39695    0.99580    0.77846   1.00
C6       0.38387    1.01129    0.71927   1.00
C6       0.36785    1.02348    0.78005   1.00
C6       0.35954    1.03334    0.74241   1.00
H3       0.41035    0.98189    0.80300   1.00
H3       0.38494    1.01201    0.68803   1.00
H3       0.35423    1.03520    0.80575   1.00
H3       0.33811    1.05424    0.73287   1.00
C4       0.50003    1.22915    0.49980   1.00
C4       0.49997    1.27085    0.50020   1.00
C3a      0.48163    1.20746    0.46935   1.00
C3       0.52630    1.29232    0.47694   1.00
C3       0.51852    1.20768    0.52967   1.00
C3a      0.47356    1.29254    0.52403   1.00
C2       0.50008    1.14488    0.50001   1.00
C2       0.50008    1.35512    0.50002   1.00
C3       0.48189    1.16595    0.46998   1.00
C3       0.52624    1.33363    0.47680   1.00
C3       0.51842    1.16637    0.52979   1.00
C3       0.47399    1.33405    0.52350   1.00
C5       0.46091    1.22772    0.43604   1.00
H1       0.54679    1.27691    0.45846   1.00
H1       0.46769    1.14979    0.44688   1.00
H1       0.54676    1.34901    0.45838   1.00
H1       0.53274    1.15099    0.55336   1.00
H1       0.45372    1.35021    0.54152   1.00
C5       0.44409    1.27228    0.54994   1.00
H1       0.53280    1.22309    0.55328   1.00
H2       0.41980    1.29256    0.55692   1.00
H2       0.43068    1.24731    0.53424   1.00
H2       0.43967    1.20744    0.42233   1.00
H2       0.44353    1.25269    0.44719   1.00
N1       0.46232    1.25857    0.58605   1.00
C6       0.47725    1.28073    0.61444   1.00
C6       0.46620    1.22154    0.59744   1.00
C6       0.49133    1.25759    0.64410   1.00
C6       0.48430    1.21995    0.63330   1.00
H3       0.47825    1.31197    0.61362   1.00
H3       0.45676    1.19700    0.58059   1.00
H3       0.50515    1.26713    0.67066   1.00
H3       0.49158    1.19425    0.64972   1.00
N1       0.48879    1.24143    0.40673   1.00
C6       0.49580    1.27846    0.39695   1.00
C6       0.51129    1.21927    0.38387   1.00
C6       0.52348    1.28005    0.36785   1.00
C6       0.53334    1.24241    0.35954   1.00
H3       0.48189    1.30300    0.41035   1.00
H3       0.51201    1.18803    0.38494   1.00
H3       0.53520    1.30575    0.35423   1.00
H3       0.55424    1.23287    0.33811   1.00
C4       0.27085    0.99980    0.49997   1.00
C4       0.22915    1.00020    0.50003   1.00
C3a      0.29254    0.96935    0.51837   1.00
C3       0.20768    0.97694    0.47370   1.00
C3       0.29232    1.02967    0.48148   1.00
C3a      0.20746    1.02403    0.52644   1.00
C2       0.35512    1.00001    0.49992   1.00
C2       0.14488    1.00002    0.49992   1.00
C3       0.33405    0.96998    0.51811   1.00
C3       0.16637    0.97680    0.47376   1.00
C3       0.33363    1.02979    0.48158   1.00
C3       0.16595    1.02350    0.52601   1.00
C5       0.27228    0.93604    0.53909   1.00
H1       0.22309    0.95846    0.45321   1.00
H1       0.35021    0.94688    0.53231   1.00
H1       0.15099    0.95838    0.45324   1.00
H1       0.34901    1.05336    0.46726   1.00
H1       0.14979    1.04152    0.54628   1.00
C5       0.22772    1.04994    0.55591   1.00
H1       0.27691    1.05328    0.46720   1.00
H2       0.20744    1.05692    0.58020   1.00
H2       0.25269    1.03424    0.56932   1.00
H2       0.29256    0.92233    0.56033   1.00
H2       0.24731    0.94719    0.55647   1.00
N1       0.24143    1.08605    0.53768   1.00
C6       0.21927    1.11444    0.52275   1.00
C6       0.27846    1.09744    0.53380   1.00
C6       0.24241    1.14410    0.50867   1.00
C6       0.28005    1.13330    0.51570   1.00
H3       0.18803    1.11362    0.52175   1.00
H3       0.30300    1.08059    0.54324   1.00
H3       0.23287    1.17066    0.49485   1.00
H3       0.30575    1.14972    0.50842   1.00
N1       0.25857    0.90673    0.51121   1.00
C6       0.22154    0.89695    0.50420   1.00
C6       0.28073    0.88387    0.48871   1.00
C6       0.21995    0.86785    0.47652   1.00
C6       0.25759    0.85954    0.46666   1.00
H3       0.19700    0.91035    0.51811   1.00
H3       0.31197    0.88494    0.48799   1.00
H3       0.19425    0.85423    0.46480   1.00
H3       0.26713    0.83811    0.44576   1.00
C4       0.72915    0.99980    0.50003   1.00
C4       0.77085    1.00020    0.49997   1.00
C3a      0.70746    0.96935    0.48163   1.00
C3       0.79232    0.97694    0.52630   1.00
C3       0.70768    1.02967    0.51852   1.00
C3a      0.79254    1.02403    0.47356   1.00
C2       0.64488    1.00001    0.50008   1.00
C2       0.85512    1.00002    0.50008   1.00
C3       0.66595    0.96998    0.48189   1.00
C3       0.83363    0.97680    0.52624   1.00
C3       0.66637    1.02979    0.51842   1.00
C3       0.83405    1.02350    0.47399   1.00
C5       0.72772    0.93604    0.46091   1.00
H1       0.77691    0.95846    0.54679   1.00
H1       0.64979    0.94688    0.46769   1.00
H1       0.84901    0.95838    0.54676   1.00
H1       0.65099    1.05336    0.53274   1.00
H1       0.85021    1.04152    0.45372   1.00
C5       0.77228    1.04994    0.44409   1.00
H1       0.72309    1.05328    0.53280   1.00
H2       0.79256    1.05692    0.41980   1.00
H2       0.74731    1.03424    0.43068   1.00
H2       0.70744    0.92233    0.43967   1.00
H2       0.75269    0.94719    0.44353   1.00
N1       0.75857    1.08605    0.46232   1.00
C6       0.78073    1.11444    0.47725   1.00
C6       0.72154    1.09744    0.46620   1.00
C6       0.75759    1.14410    0.49133   1.00
C6       0.71995    1.13330    0.48430   1.00
H3       0.81197    1.11362    0.47825   1.00
H3       0.69700    1.08059    0.45676   1.00
H3       0.76713    1.17066    0.50515   1.00
H3       0.69425    1.14972    0.49158   1.00
N1       0.74143    0.90673    0.48879   1.00
C6       0.77846    0.89695    0.49580   1.00
C6       0.71927    0.88387    0.51129   1.00
C6       0.78005    0.86785    0.52348   1.00
C6       0.74241    0.85954    0.53334   1.00
H3       0.80300    0.91035    0.48189   1.00
H3       0.68803    0.88494    0.51201   1.00
H3       0.80575    0.85423    0.53520   1.00
H3       0.73287    0.83811    0.55424   1.00
C4       0.49997    0.77085    0.49980   1.00
C4       0.50003    0.72915    0.50020   1.00
C3a      0.51837    0.79254    0.46935   1.00
C3       0.47370    0.70768    0.47694   1.00
C3       0.48148    0.79232    0.52967   1.00
C3a      0.52644    0.70746    0.52403   1.00
C2       0.49992    0.85512    0.50001   1.00
C2       0.49992    0.64488    0.50002   1.00
C3       0.51811    0.83405    0.46998   1.00
C3       0.47376    0.66637    0.47680   1.00
C3       0.48158    0.83363    0.52979   1.00
C3       0.52601    0.66595    0.52350   1.00
C5       0.53909    0.77228    0.43604   1.00
H1       0.45321    0.72309    0.45846   1.00
H1       0.53231    0.85021    0.44688   1.00
H1       0.45324    0.65099    0.45838   1.00
H1       0.46726    0.84901    0.55336   1.00
H1       0.54628    0.64979    0.54152   1.00
C5       0.55591    0.72772    0.54994   1.00
H1       0.46720    0.77691    0.55328   1.00
H2       0.58020    0.70744    0.55692   1.00
H2       0.56932    0.75269    0.53424   1.00
H2       0.56033    0.79256    0.42233   1.00
H2       0.55647    0.74731    0.44719   1.00
N1       0.53768    0.74143    0.58605   1.00
C6       0.52275    0.71927    0.61444   1.00
C6       0.53380    0.77846    0.59744   1.00
C6       0.50867    0.74241    0.64410   1.00
C6       0.51570    0.78005    0.63330   1.00
H3       0.52175    0.68803    0.61362   1.00
H3       0.54324    0.80300    0.58059   1.00
H3       0.49485    0.73287    0.67066   1.00
H3       0.50842    0.80575    0.64972   1.00
N1       0.51121    0.75857    0.40673   1.00
C6       0.50420    0.72154    0.39695   1.00
C6       0.48871    0.78073    0.38387   1.00
C6       0.47652    0.71995    0.36785   1.00
C6       0.46666    0.75759    0.35954   1.00
H3       0.51811    0.69700    0.41035   1.00
H3       0.48799    0.81197    0.38494   1.00
H3       0.46480    0.69425    0.35423   1.00
H3       0.44576    0.76713    0.33811   1.00
C4       0.49980    0.99997    0.27085   1.00
C4       0.50020    1.00003    0.22915   1.00
C3a      0.46935    1.01837    0.29254   1.00
C3       0.47694    0.97370    0.20768   1.00
C3       0.52967    0.98148    0.29232   1.00
C3a      0.52403    1.02644    0.20746   1.00
C2       0.50001    0.99992    0.35512   1.00
C2       0.50002    0.99992    0.14488   1.00
C3       0.46998    1.01811    0.33405   1.00
C3       0.47680    0.97376    0.16637   1.00
C3       0.52979    0.98158    0.33363   1.00
C3       0.52350    1.02601    0.16595   1.00
C5       0.43604    1.03909    0.27228   1.00
H1       0.45846    0.95321    0.22309   1.00
H1       0.44688    1.03231    0.35021   1.00
H1       0.45838    0.95324    0.15099   1.00
H1       0.55336    0.96726    0.34901   1.00
H1       0.54152    1.04628    0.14979   1.00
C5       0.54994    1.05591    0.22772   1.00
H1       0.55328    0.96720    0.27691   1.00
H2       0.55692    1.08020    0.20744   1.00
H2       0.53424    1.06932    0.25269   1.00
H2       0.42233    1.06033    0.29256   1.00
H2       0.44719    1.05647    0.24731   1.00
N1       0.58605    1.03768    0.24143   1.00
C6       0.61444    1.02275    0.21927   1.00
C6       0.59744    1.03380    0.27846   1.00
C6       0.64410    1.00867    0.24241   1.00
C6       0.63330    1.01570    0.28005   1.00
H3       0.61362    1.02175    0.18803   1.00
H3       0.58059    1.04324    0.30300   1.00
H3       0.67066    0.99485    0.23287   1.00
H3       0.64972    1.00842    0.30575   1.00
N1       0.40673    1.01121    0.25857   1.00
C6       0.39695    1.00420    0.22154   1.00
C6       0.38387    0.98871    0.28073   1.00
C6       0.36785    0.97652    0.21995   1.00
C6       0.35954    0.96666    0.25759   1.00
H3       0.41035    1.01811    0.19700   1.00
H3       0.38494    0.98799    0.31197   1.00
H3       0.35423    0.96480    0.19425   1.00
H3       0.33811    0.94576    0.26713   1.00
C4       0.99980    0.50003    0.72915   1.00
C4       1.00020    0.49997    0.77085   1.00
C3a      0.96935    0.48163    0.70746   1.00
C3       0.97694    0.52630    0.79232   1.00
C3       1.02967    0.51852    0.70768   1.00
C3a      1.02403    0.47356    0.79254   1.00
C2       1.00001    0.50008    0.64488   1.00
C2       1.00002    0.50008    0.85512   1.00
C3       0.96998    0.48189    0.66595   1.00
C3       0.97680    0.52624    0.83363   1.00
C3       1.02979    0.51842    0.66637   1.00
C3       1.02350    0.47399    0.83405   1.00
C5       0.93604    0.46091    0.72772   1.00
H1       0.95846    0.54679    0.77691   1.00
H1       0.94688    0.46769    0.64979   1.00
H1       0.95838    0.54676    0.84901   1.00
H1       1.05336    0.53274    0.65099   1.00
H1       1.04152    0.45372    0.85021   1.00
C5       1.04994    0.44409    0.77228   1.00
H1       1.05328    0.53280    0.72309   1.00
H2       1.05692    0.41980    0.79256   1.00
H2       1.03424    0.43068    0.74731   1.00
H2       0.92233    0.43967    0.70744   1.00
H2       0.94719    0.44353    0.75269   1.00
N1       1.08605    0.46232    0.75857   1.00
C6       1.11444    0.47725    0.78073   1.00
C6       1.09744    0.46620    0.72154   1.00
C6       1.14410    0.49133    0.75759   1.00
C6       1.13330    0.48430    0.71995   1.00
H3       1.11362    0.47825    0.81197   1.00
H3       1.08059    0.45676    0.69700   1.00
H3       1.17066    0.50515    0.76713   1.00
H3       1.14972    0.49158    0.69425   1.00
N1       0.90673    0.48879    0.74143   1.00
C6       0.89695    0.49580    0.77846   1.00
C6       0.88387    0.51129    0.71927   1.00
C6       0.86785    0.52348    0.78005   1.00
C6       0.85954    0.53334    0.74241   1.00
H3       0.91035    0.48189    0.80300   1.00
H3       0.88494    0.51201    0.68803   1.00
H3       0.85423    0.53520    0.80575   1.00
H3       0.83811    0.55424    0.73287   1.00
C4       1.00003    0.72915    0.49980   1.00
C4       0.99997    0.77085    0.50020   1.00
C3a      0.98163    0.70746    0.46935   1.00
C3       1.02630    0.79232    0.47694   1.00
C3       1.01852    0.70768    0.52967   1.00
C3a      0.97356    0.79254    0.52403   1.00
C2       1.00008    0.64488    0.50001   1.00
C2       1.00008    0.85512    0.50002   1.00
C3       0.98189    0.66595    0.46998   1.00
C3       1.02624    0.83363    0.47680   1.00
C3       1.01842    0.66637    0.52979   1.00
C3       0.97399    0.83405    0.52350   1.00
C5       0.96091    0.72772    0.43604   1.00
H1       1.04679    0.77691    0.45846   1.00
H1       0.96769    0.64979    0.44688   1.00
H1       1.04676    0.84901    0.45838   1.00
H1       1.03274    0.65099    0.55336   1.00
H1       0.95372    0.85021    0.54152   1.00
C5       0.94409    0.77228    0.54994   1.00
H1       1.03280    0.72309    0.55328   1.00
H2       0.91980    0.79256    0.55692   1.00
H2       0.93068    0.74731    0.53424   1.00
H2       0.93967    0.70744    0.42233   1.00
H2       0.94353    0.75269    0.44719   1.00
N1       0.96232    0.75857    0.58605   1.00
C6       0.97725    0.78073    0.61444   1.00
C6       0.96620    0.72154    0.59744   1.00
C6       0.99133    0.75759    0.64410   1.00
C6       0.98430    0.71995    0.63330   1.00
H3       0.97825    0.81197    0.61362   1.00
H3       0.95676    0.69700    0.58059   1.00
H3       1.00515    0.76713    0.67066   1.00
H3       0.99158    0.69425    0.64972   1.00
N1       0.98879    0.74143    0.40673   1.00
C6       0.99580    0.77846    0.39695   1.00
C6       1.01129    0.71927    0.38387   1.00
C6       1.02348    0.78005    0.36785   1.00
C6       1.03334    0.74241    0.35954   1.00
H3       0.98189    0.80300    0.41035   1.00
H3       1.01201    0.68803    0.38494   1.00
H3       1.03520    0.80575    0.35423   1.00
H3       1.05424    0.73287    0.33811   1.00
C4       0.77085    0.49980    0.49997   1.00
C4       0.72915    0.50020    0.50003   1.00
C3a      0.79254    0.46935    0.51837   1.00
C3       0.70768    0.47694    0.47370   1.00
C3       0.79232    0.52967    0.48148   1.00
C3a      0.70746    0.52403    0.52644   1.00
C2       0.85512    0.50001    0.49992   1.00
C2       0.64488    0.50002    0.49992   1.00
C3       0.83405    0.46998    0.51811   1.00
C3       0.66637    0.47680    0.47376   1.00
C3       0.83363    0.52979    0.48158   1.00
C3       0.66595    0.52350    0.52601   1.00
C5       0.77228    0.43604    0.53909   1.00
H1       0.72309    0.45846    0.45321   1.00
H1       0.85021    0.44688    0.53231   1.00
H1       0.65099    0.45838    0.45324   1.00
H1       0.84901    0.55336    0.46726   1.00
H1       0.64979    0.54152    0.54628   1.00
C5       0.72772    0.54994    0.55591   1.00
H1       0.77691    0.55328    0.46720   1.00
H2       0.70744    0.55692    0.58020   1.00
H2       0.75269    0.53424    0.56932   1.00
H2       0.79256    0.42233    0.56033   1.00
H2       0.74731    0.44719    0.55647   1.00
N1       0.74143    0.58605    0.53768   1.00
C6       0.71927    0.61444    0.52275   1.00
C6       0.77846    0.59744    0.53380   1.00
C6       0.74241    0.64410    0.50867   1.00
C6       0.78005    0.63330    0.51570   1.00
H3       0.68803    0.61362    0.52175   1.00
H3       0.80300    0.58059    0.54324   1.00
H3       0.73287    0.67066    0.49485   1.00
H3       0.80575    0.64972    0.50842   1.00
N1       0.75857    0.40673    0.51121   1.00
C6       0.72154    0.39695    0.50420   1.00
C6       0.78073    0.38387    0.48871   1.00
C6       0.71995    0.36785    0.47652   1.00
C6       0.75759    0.35954    0.46666   1.00
H3       0.69700    0.41035    0.51811   1.00
H3       0.81197    0.38494    0.48799   1.00
H3       0.69425    0.35423    0.46480   1.00
H3       0.76713    0.33811    0.44576   1.00
C4       1.22915    0.49980    0.50003   1.00
C4       1.27085    0.50020    0.49997   1.00
C3a      1.20746    0.46935    0.48163   1.00
C3       1.29232    0.47694    0.52630   1.00
C3       1.20768    0.52967    0.51852   1.00
C3a      1.29254    0.52403    0.47356   1.00
C2       1.14488    0.50001    0.50008   1.00
C2       1.35512    0.50002    0.50008   1.00
C3       1.16595    0.46998    0.48189   1.00
C3       1.33363    0.47680    0.52624   1.00
C3       1.16637    0.52979    0.51842   1.00
C3       1.33405    0.52350    0.47399   1.00
C5       1.22772    0.43604    0.46091   1.00
H1       1.27691    0.45846    0.54679   1.00
H1       1.14979    0.44688    0.46769   1.00
H1       1.34901    0.45838    0.54676   1.00
H1       1.15099    0.55336    0.53274   1.00
H1       1.35021    0.54152    0.45372   1.00
C5       1.27228    0.54994    0.44409   1.00
H1       1.22309    0.55328    0.53280   1.00
H2       1.29256    0.55692    0.41980   1.00
H2       1.24731    0.53424    0.43068   1.00
H2       1.20744    0.42233    0.43967   1.00
H2       1.25269    0.44719    0.44353   1.00
N1       1.25857    0.58605    0.46232   1.00
C6       1.28073    0.61444    0.47725   1.00
C6       1.22154    0.59744    0.46620   1.00
C6       1.25759    0.64410    0.49133   1.00
C6       1.21995    0.63330    0.48430   1.00
H3       1.31197    0.61362    0.47825   1.00
H3       1.19700    0.58059    0.45676   1.00
H3       1.26713    0.67066    0.50515   1.00
H3       1.19425    0.64972    0.49158   1.00
N1       1.24143    0.40673    0.48879   1.00
C6       1.27846    0.39695    0.49580   1.00
C6       1.21927    0.38387    0.51129   1.00
C6       1.28005    0.36785    0.52348   1.00
C6       1.24241    0.35954    0.53334   1.00
H3       1.30300    0.41035    0.48189   1.00
H3       1.18803    0.38494    0.51201   1.00
H3       1.30575    0.35423    0.53520   1.00
H3       1.23287    0.33811    0.55424   1.00
C4       0.99997    0.27085    0.49980   1.00
C4       1.00003    0.22915    0.50020   1.00
C3a      1.01837    0.29254    0.46935   1.00
C3       0.97370    0.20768    0.47694   1.00
C3       0.98148    0.29232    0.52967   1.00
C3a      1.02644    0.20746    0.52403   1.00
C2       0.99992    0.35512    0.50001   1.00
C2       0.99992    0.14488    0.50002   1.00
C3       1.01811    0.33405    0.46998   1.00
C3       0.97376    0.16637    0.47680   1.00
C3       0.98158    0.33363    0.52979   1.00
C3       1.02601    0.16595    0.52350   1.00
C5       1.03909    0.27228    0.43604   1.00
H1       0.95321    0.22309    0.45846   1.00
H1       1.03231    0.35021    0.44688   1.00
H1       0.95324    0.15099    0.45838   1.00
H1       0.96726    0.34901    0.55336   1.00
H1       1.04628    0.14979    0.54152   1.00
C5       1.05591    0.22772    0.54994   1.00
H1       0.96720    0.27691    0.55328   1.00
H2       1.08020    0.20744    0.55692   1.00
H2       1.06932    0.25269    0.53424   1.00
H2       1.06033    0.29256    0.42233   1.00
H2       1.05647    0.24731    0.44719   1.00
N1       1.03768    0.24143    0.58605   1.00
C6       1.02275    0.21927    0.61444   1.00
C6       1.03380    0.27846    0.59744   1.00
C6       1.00867    0.24241    0.64410   1.00
C6       1.01570    0.28005    0.63330   1.00
H3       1.02175    0.18803    0.61362   1.00
H3       1.04324    0.30300    0.58059   1.00
H3       0.99485    0.23287    0.67066   1.00
H3       1.00842    0.30575    0.64972   1.00
N1       1.01121    0.25857    0.40673   1.00
C6       1.00420    0.22154    0.39695   1.00
C6       0.98871    0.28073    0.38387   1.00
C6       0.97652    0.21995    0.36785   1.00
C6       0.96666    0.25759    0.35954   1.00
H3       1.01811    0.19700    0.41035   1.00
H3       0.98799    0.31197    0.38494   1.00
H3       0.96480    0.19425    0.35423   1.00
H3       0.94576    0.26713    0.33811   1.00
C4       0.99980    0.49997    0.27085   1.00
C4       1.00020    0.50003    0.22915   1.00
C3a      0.96935    0.51837    0.29254   1.00
C3       0.97694    0.47370    0.20768   1.00
C3       1.02967    0.48148    0.29232   1.00
C3a      1.02403    0.52644    0.20746   1.00
C2       1.00001    0.49992    0.35512   1.00
C2       1.00002    0.49992    0.14488   1.00
C3       0.96998    0.51811    0.33405   1.00
C3       0.97680    0.47376    0.16637   1.00
C3       1.02979    0.48158    0.33363   1.00
C3       1.02350    0.52601    0.16595   1.00
C5       0.93604    0.53909    0.27228   1.00
H1       0.95846    0.45321    0.22309   1.00
H1       0.94688    0.53231    0.35021   1.00
H1       0.95838    0.45324    0.15099   1.00
H1       1.05336    0.46726    0.34901   1.00
H1       1.04152    0.54628    0.14979   1.00
C5       1.04994    0.55591    0.22772   1.00
H1       1.05328    0.46720    0.27691   1.00
H2       1.05692    0.58020    0.20744   1.00
H2       1.03424    0.56932    0.25269   1.00
H2       0.92233    0.56033    0.29256   1.00
H2       0.94719    0.55647    0.24731   1.00
N1       1.08605    0.53768    0.24143   1.00
C6       1.11444    0.52275    0.21927   1.00
C6       1.09744    0.53380    0.27846   1.00
C6       1.14410    0.50867    0.24241   1.00
C6       1.13330    0.51570    0.28005   1.00
H3       1.11362    0.52175    0.18803   1.00
H3       1.08059    0.54324    0.30300   1.00
H3       1.17066    0.49485    0.23287   1.00
H3       1.14972    0.50842    0.30575   1.00
N1       0.90673    0.51121    0.25857   1.00
C6       0.89695    0.50420    0.22154   1.00
C6       0.88387    0.48871    0.28073   1.00
C6       0.86785    0.47652    0.21995   1.00
C6       0.85954    0.46666    0.25759   1.00
H3       0.91035    0.51811    0.19700   1.00
H3       0.88494    0.48799    0.31197   1.00
H3       0.85423    0.46480    0.19425   1.00
H3       0.83811    0.44576    0.26713   1.00
