data_IRMOF10_SG202_interpen_Ligand2lp_label_f.

_audit_creation_method             'generated by an auxiliary program of Tobunporous'

_symmetry_space_group_name_H-M     'P 1'
_symmetry_Int_Tables_number        1
_symmetry_cell_setting             triclinic

_cell_length_a                    34.2800
_cell_length_b                    34.2800
_cell_length_c                    34.2800
_cell_angle_alpha                 90.0000
_cell_angle_beta                  90.0000
_cell_angle_gamma                 90.0000

loop_
_atom_site_label
_atom_site_fract_x
_atom_site_fract_y
_atom_site_fract_z
_atom_site_occupancy
O1       0.75000    0.75000    0.75000   1.00
Zn1      0.71720    0.78280    0.78280   1.00
Zn1      0.78280    0.71720    0.78280   1.00
Zn1      0.78280    0.78280    0.71720   1.00
Zn1      0.71720    0.71720    0.71720   1.00
O2       0.72650    0.77350    0.83820   1.00
O2       0.72650    0.83820    0.77350   1.00
O2       0.66180    0.77350    0.77350   1.00
O2       0.77350    0.72650    0.83820   1.00
O2       0.83820    0.72650    0.77350   1.00
O2       0.77350    0.66180    0.77350   1.00
O2       0.77350    0.83820    0.72650   1.00
O2       0.83820    0.77350    0.72650   1.00
O2       0.77350    0.77350    0.66180   1.00
O2       0.66180    0.72650    0.72650   1.00
O2       0.72650    0.66180    0.72650   1.00
O2       0.72650    0.72650    0.66180   1.00
C1       0.75000    0.75000    0.85520   1.00
C1       0.75000    0.85520    0.75000   1.00
C1       0.64480    0.75000    0.75000   1.00
C1       0.85520    0.75000    0.75000   1.00
C1       0.75000    0.64480    0.75000   1.00
C1       0.75000    0.75000    0.64480   1.00
O1       0.25000    0.25000    0.75000   1.00
Zn1      0.21720    0.28280    0.78280   1.00
Zn1      0.28280    0.21720    0.78280   1.00
Zn1      0.28280    0.28280    0.71720   1.00
Zn1      0.21720    0.21720    0.71720   1.00
O2       0.22650    0.27350    0.83820   1.00
O2       0.22650    0.33820    0.77350   1.00
O2       0.16180    0.27350    0.77350   1.00
O2       0.27350    0.22650    0.83820   1.00
O2       0.33820    0.22650    0.77350   1.00
O2       0.27350    0.16180    0.77350   1.00
O2       0.27350    0.33820    0.72650   1.00
O2       0.33820    0.27350    0.72650   1.00
O2       0.27350    0.27350    0.66180   1.00
O2       0.16180    0.22650    0.72650   1.00
O2       0.22650    0.16180    0.72650   1.00
O2       0.22650    0.22650    0.66180   1.00
C1       0.25000    0.25000    0.85520   1.00
C1       0.25000    0.35520    0.75000   1.00
C1       0.14480    0.25000    0.75000   1.00
C1       0.35520    0.25000    0.75000   1.00
C1       0.25000    0.14480    0.75000   1.00
C1       0.25000    0.25000    0.64480   1.00
O1       0.25000    0.75000    0.25000   1.00
Zn1      0.21720    0.78280    0.28280   1.00
Zn1      0.28280    0.71720    0.28280   1.00
Zn1      0.28280    0.78280    0.21720   1.00
Zn1      0.21720    0.71720    0.21720   1.00
O2       0.22650    0.77350    0.33820   1.00
O2       0.22650    0.83820    0.27350   1.00
O2       0.16180    0.77350    0.27350   1.00
O2       0.27350    0.72650    0.33820   1.00
O2       0.33820    0.72650    0.27350   1.00
O2       0.27350    0.66180    0.27350   1.00
O2       0.27350    0.83820    0.22650   1.00
O2       0.33820    0.77350    0.22650   1.00
O2       0.27350    0.77350    0.16180   1.00
O2       0.16180    0.72650    0.22650   1.00
O2       0.22650    0.66180    0.22650   1.00
O2       0.22650    0.72650    0.16180   1.00
C1       0.25000    0.75000    0.35520   1.00
C1       0.25000    0.85520    0.25000   1.00
C1       0.14480    0.75000    0.25000   1.00
C1       0.35520    0.75000    0.25000   1.00
C1       0.25000    0.64480    0.25000   1.00
C1       0.25000    0.75000    0.14480   1.00
O1       0.75000    0.25000    0.25000   1.00
Zn1      0.71720    0.28280    0.28280   1.00
Zn1      0.78280    0.21720    0.28280   1.00
Zn1      0.78280    0.28280    0.21720   1.00
Zn1      0.71720    0.21720    0.21720   1.00
O2       0.72650    0.27350    0.33820   1.00
O2       0.72650    0.33820    0.27350   1.00
O2       0.66180    0.27350    0.27350   1.00
O2       0.77350    0.22650    0.33820   1.00
O2       0.83820    0.22650    0.27350   1.00
O2       0.77350    0.16180    0.27350   1.00
O2       0.77350    0.33820    0.22650   1.00
O2       0.83820    0.27350    0.22650   1.00
O2       0.77350    0.27350    0.16180   1.00
O2       0.66180    0.22650    0.22650   1.00
O2       0.72650    0.16180    0.22650   1.00
O2       0.72650    0.22650    0.16180   1.00
C1       0.75000    0.25000    0.35520   1.00
C1       0.75000    0.35520    0.25000   1.00
C1       0.64480    0.25000    0.25000   1.00
C1       0.85520    0.25000    0.25000   1.00
C1       0.75000    0.14480    0.25000   1.00
C1       0.75000    0.25000    0.14480   1.00
O1       0.25000    0.25000    0.25000   1.00
Zn1      0.28280    0.21720    0.21720   1.00
Zn1      0.21720    0.28280    0.21720   1.00
Zn1      0.21720    0.21720    0.28280   1.00
Zn1      0.28280    0.28280    0.28280   1.00
O2       0.27350    0.22650    0.16180   1.00
O2       0.27350    0.16180    0.22650   1.00
O2       0.33820    0.22650    0.22650   1.00
O2       0.22650    0.27350    0.16180   1.00
O2       0.16180    0.27350    0.22650   1.00
O2       0.22650    0.33820    0.22650   1.00
O2       0.22650    0.16180    0.27350   1.00
O2       0.16180    0.22650    0.27350   1.00
O2       0.22650    0.22650    0.33820   1.00
O2       0.33820    0.27350    0.27350   1.00
O2       0.27350    0.33820    0.27350   1.00
O2       0.27350    0.27350    0.33820   1.00
C1       0.25000    0.25000    0.14480   1.00
C1       0.25000    0.14480    0.25000   1.00
C1       0.35520    0.25000    0.25000   1.00
C1       0.14480    0.25000    0.25000   1.00
C1       0.25000    0.35520    0.25000   1.00
C1       0.25000    0.25000    0.35520   1.00
O1       0.75000    0.75000    0.25000   1.00
Zn1      0.78280    0.71720    0.21720   1.00
Zn1      0.71720    0.78280    0.21720   1.00
Zn1      0.71720    0.71720    0.28280   1.00
Zn1      0.78280    0.78280    0.28280   1.00
O2       0.77350    0.72650    0.16180   1.00
O2       0.77350    0.66180    0.22650   1.00
O2       0.83820    0.72650    0.22650   1.00
O2       0.72650    0.77350    0.16180   1.00
O2       0.66180    0.77350    0.22650   1.00
O2       0.72650    0.83820    0.22650   1.00
O2       0.72650    0.66180    0.27350   1.00
O2       0.66180    0.72650    0.27350   1.00
O2       0.72650    0.72650    0.33820   1.00
O2       0.83820    0.77350    0.27350   1.00
O2       0.77350    0.83820    0.27350   1.00
O2       0.77350    0.77350    0.33820   1.00
C1       0.75000    0.75000    0.14480   1.00
C1       0.75000    0.64480    0.25000   1.00
C1       0.85520    0.75000    0.25000   1.00
C1       0.64480    0.75000    0.25000   1.00
C1       0.75000    0.85520    0.25000   1.00
C1       0.75000    0.75000    0.35520   1.00
O1       0.75000    0.25000    0.75000   1.00
Zn1      0.78280    0.21720    0.71720   1.00
Zn1      0.71720    0.28280    0.71720   1.00
Zn1      0.71720    0.21720    0.78280   1.00
Zn1      0.78280    0.28280    0.78280   1.00
O2       0.77350    0.22650    0.66180   1.00
O2       0.77350    0.16180    0.72650   1.00
O2       0.83820    0.22650    0.72650   1.00
O2       0.72650    0.27350    0.66180   1.00
O2       0.66180    0.27350    0.72650   1.00
O2       0.72650    0.33820    0.72650   1.00
O2       0.72650    0.16180    0.77350   1.00
O2       0.66180    0.22650    0.77350   1.00
O2       0.72650    0.22650    0.83820   1.00
O2       0.83820    0.27350    0.77350   1.00
O2       0.77350    0.33820    0.77350   1.00
O2       0.77350    0.27350    0.83820   1.00
C1       0.75000    0.25000    0.64480   1.00
C1       0.75000    0.14480    0.75000   1.00
C1       0.85520    0.25000    0.75000   1.00
C1       0.64480    0.25000    0.75000   1.00
C1       0.75000    0.35520    0.75000   1.00
C1       0.75000    0.25000    0.85520   1.00
O1       0.25000    0.75000    0.75000   1.00
Zn1      0.28280    0.71720    0.71720   1.00
Zn1      0.21720    0.78280    0.71720   1.00
Zn1      0.21720    0.71720    0.78280   1.00
Zn1      0.28280    0.78280    0.78280   1.00
O2       0.27350    0.72650    0.66180   1.00
O2       0.27350    0.66180    0.72650   1.00
O2       0.33820    0.72650    0.72650   1.00
O2       0.22650    0.77350    0.66180   1.00
O2       0.16180    0.77350    0.72650   1.00
O2       0.22650    0.83820    0.72650   1.00
O2       0.22650    0.66180    0.77350   1.00
O2       0.16180    0.72650    0.77350   1.00
O2       0.22650    0.72650    0.83820   1.00
O2       0.33820    0.77350    0.77350   1.00
O2       0.27350    0.83820    0.77350   1.00
O2       0.27350    0.77350    0.83820   1.00
C1       0.25000    0.75000    0.64480   1.00
C1       0.25000    0.64480    0.75000   1.00
C1       0.35520    0.75000    0.75000   1.00
C1       0.14480    0.75000    0.75000   1.00
C1       0.25000    0.85520    0.75000   1.00
C1       0.25000    0.75000    0.85520   1.00
O1       1.00000    1.00000    1.00000   1.00
Zn1      0.96720    1.03280    1.03280   1.00
Zn1      1.03280    0.96720    1.03280   1.00
Zn1      1.03280    1.03280    0.96720   1.00
Zn1      0.96720    0.96720    0.96720   1.00
O2       0.97650    1.02350    1.08820   1.00
O2       0.97650    1.08820    1.02350   1.00
O2       0.91180    1.02350    1.02350   1.00
O2       1.02350    0.97650    1.08820   1.00
O2       1.08820    0.97650    1.02350   1.00
O2       1.02350    0.91180    1.02350   1.00
O2       1.02350    1.08820    0.97650   1.00
O2       1.08820    1.02350    0.97650   1.00
O2       1.02350    1.02350    0.91180   1.00
O2       0.91180    0.97650    0.97650   1.00
O2       0.97650    0.91180    0.97650   1.00
O2       0.97650    0.97650    0.91180   1.00
C1       1.00000    1.00000    1.10520   1.00
C1       1.00000    1.10520    1.00000   1.00
C1       0.89480    1.00000    1.00000   1.00
C1       1.10520    1.00000    1.00000   1.00
C1       1.00000    0.89480    1.00000   1.00
C1       1.00000    1.00000    0.89480   1.00
O1       0.50000    0.50000    1.00000   1.00
Zn1      0.46720    0.53280    1.03280   1.00
Zn1      0.53280    0.46720    1.03280   1.00
Zn1      0.53280    0.53280    0.96720   1.00
Zn1      0.46720    0.46720    0.96720   1.00
O2       0.47650    0.52350    1.08820   1.00
O2       0.47650    0.58820    1.02350   1.00
O2       0.41180    0.52350    1.02350   1.00
O2       0.52350    0.47650    1.08820   1.00
O2       0.58820    0.47650    1.02350   1.00
O2       0.52350    0.41180    1.02350   1.00
O2       0.52350    0.58820    0.97650   1.00
O2       0.58820    0.52350    0.97650   1.00
O2       0.52350    0.52350    0.91180   1.00
O2       0.41180    0.47650    0.97650   1.00
O2       0.47650    0.41180    0.97650   1.00
O2       0.47650    0.47650    0.91180   1.00
C1       0.50000    0.50000    1.10520   1.00
C1       0.50000    0.60520    1.00000   1.00
C1       0.39480    0.50000    1.00000   1.00
C1       0.60520    0.50000    1.00000   1.00
C1       0.50000    0.39480    1.00000   1.00
C1       0.50000    0.50000    0.89480   1.00
O1       0.50000    1.00000    0.50000   1.00
Zn1      0.46720    1.03280    0.53280   1.00
Zn1      0.53280    0.96720    0.53280   1.00
Zn1      0.53280    1.03280    0.46720   1.00
Zn1      0.46720    0.96720    0.46720   1.00
O2       0.47650    1.02350    0.58820   1.00
O2       0.47650    1.08820    0.52350   1.00
O2       0.41180    1.02350    0.52350   1.00
O2       0.52350    0.97650    0.58820   1.00
O2       0.58820    0.97650    0.52350   1.00
O2       0.52350    0.91180    0.52350   1.00
O2       0.52350    1.08820    0.47650   1.00
O2       0.58820    1.02350    0.47650   1.00
O2       0.52350    1.02350    0.41180   1.00
O2       0.41180    0.97650    0.47650   1.00
O2       0.47650    0.91180    0.47650   1.00
O2       0.47650    0.97650    0.41180   1.00
C1       0.50000    1.00000    0.60520   1.00
C1       0.50000    1.10520    0.50000   1.00
C1       0.39480    1.00000    0.50000   1.00
C1       0.60520    1.00000    0.50000   1.00
C1       0.50000    0.89480    0.50000   1.00
C1       0.50000    1.00000    0.39480   1.00
O1       1.00000    0.50000    0.50000   1.00
Zn1      0.96720    0.53280    0.53280   1.00
Zn1      1.03280    0.46720    0.53280   1.00
Zn1      1.03280    0.53280    0.46720   1.00
Zn1      0.96720    0.46720    0.46720   1.00
O2       0.97650    0.52350    0.58820   1.00
O2       0.97650    0.58820    0.52350   1.00
O2       0.91180    0.52350    0.52350   1.00
O2       1.02350    0.47650    0.58820   1.00
O2       1.08820    0.47650    0.52350   1.00
O2       1.02350    0.41180    0.52350   1.00
O2       1.02350    0.58820    0.47650   1.00
O2       1.08820    0.52350    0.47650   1.00
O2       1.02350    0.52350    0.41180   1.00
O2       0.91180    0.47650    0.47650   1.00
O2       0.97650    0.41180    0.47650   1.00
O2       0.97650    0.47650    0.41180   1.00
C1       1.00000    0.50000    0.60520   1.00
C1       1.00000    0.60520    0.50000   1.00
C1       0.89480    0.50000    0.50000   1.00
C1       1.10520    0.50000    0.50000   1.00
C1       1.00000    0.39480    0.50000   1.00
C1       1.00000    0.50000    0.39480   1.00
O1       0.50000    0.50000    0.50000   1.00
Zn1      0.53280    0.46720    0.46720   1.00
Zn1      0.46720    0.53280    0.46720   1.00
Zn1      0.46720    0.46720    0.53280   1.00
Zn1      0.53280    0.53280    0.53280   1.00
O2       0.52350    0.47650    0.41180   1.00
O2       0.52350    0.41180    0.47650   1.00
O2       0.58820    0.47650    0.47650   1.00
O2       0.47650    0.52350    0.41180   1.00
O2       0.41180    0.52350    0.47650   1.00
O2       0.47650    0.58820    0.47650   1.00
O2       0.47650    0.41180    0.52350   1.00
O2       0.41180    0.47650    0.52350   1.00
O2       0.47650    0.47650    0.58820   1.00
O2       0.58820    0.52350    0.52350   1.00
O2       0.52350    0.58820    0.52350   1.00
O2       0.52350    0.52350    0.58820   1.00
C1       0.50000    0.50000    0.39480   1.00
C1       0.50000    0.39480    0.50000   1.00
C1       0.60520    0.50000    0.50000   1.00
C1       0.39480    0.50000    0.50000   1.00
C1       0.50000    0.60520    0.50000   1.00
C1       0.50000    0.50000    0.60520   1.00
O1       1.00000    1.00000    0.50000   1.00
Zn1      1.03280    0.96720    0.46720   1.00
Zn1      0.96720    1.03280    0.46720   1.00
Zn1      0.96720    0.96720    0.53280   1.00
Zn1      1.03280    1.03280    0.53280   1.00
O2       1.02350    0.97650    0.41180   1.00
O2       1.02350    0.91180    0.47650   1.00
O2       1.08820    0.97650    0.47650   1.00
O2       0.97650    1.02350    0.41180   1.00
O2       0.91180    1.02350    0.47650   1.00
O2       0.97650    1.08820    0.47650   1.00
O2       0.97650    0.91180    0.52350   1.00
O2       0.91180    0.97650    0.52350   1.00
O2       0.97650    0.97650    0.58820   1.00
O2       1.08820    1.02350    0.52350   1.00
O2       1.02350    1.08820    0.52350   1.00
O2       1.02350    1.02350    0.58820   1.00
C1       1.00000    1.00000    0.39480   1.00
C1       1.00000    0.89480    0.50000   1.00
C1       1.10520    1.00000    0.50000   1.00
C1       0.89480    1.00000    0.50000   1.00
C1       1.00000    1.10520    0.50000   1.00
C1       1.00000    1.00000    0.60520   1.00
O1       1.00000    0.50000    1.00000   1.00
Zn1      1.03280    0.46720    0.96720   1.00
Zn1      0.96720    0.53280    0.96720   1.00
Zn1      0.96720    0.46720    1.03280   1.00
Zn1      1.03280    0.53280    1.03280   1.00
O2       1.02350    0.47650    0.91180   1.00
O2       1.02350    0.41180    0.97650   1.00
O2       1.08820    0.47650    0.97650   1.00
O2       0.97650    0.52350    0.91180   1.00
O2       0.91180    0.52350    0.97650   1.00
O2       0.97650    0.58820    0.97650   1.00
O2       0.97650    0.41180    1.02350   1.00
O2       0.91180    0.47650    1.02350   1.00
O2       0.97650    0.47650    1.08820   1.00
O2       1.08820    0.52350    1.02350   1.00
O2       1.02350    0.58820    1.02350   1.00
O2       1.02350    0.52350    1.08820   1.00
C1       1.00000    0.50000    0.89480   1.00
C1       1.00000    0.39480    1.00000   1.00
C1       1.10520    0.50000    1.00000   1.00
C1       0.89480    0.50000    1.00000   1.00
C1       1.00000    0.60520    1.00000   1.00
C1       1.00000    0.50000    1.10520   1.00
O1       0.50000    1.00000    1.00000   1.00
Zn1      0.53280    0.96720    0.96720   1.00
Zn1      0.46720    1.03280    0.96720   1.00
Zn1      0.46720    0.96720    1.03280   1.00
Zn1      0.53280    1.03280    1.03280   1.00
O2       0.52350    0.97650    0.91180   1.00
O2       0.52350    0.91180    0.97650   1.00
O2       0.58820    0.97650    0.97650   1.00
O2       0.47650    1.02350    0.91180   1.00
O2       0.41180    1.02350    0.97650   1.00
O2       0.47650    1.08820    0.97650   1.00
O2       0.47650    0.91180    1.02350   1.00
O2       0.41180    0.97650    1.02350   1.00
O2       0.47650    0.97650    1.08820   1.00
O2       0.58820    1.02350    1.02350   1.00
O2       0.52350    1.08820    1.02350   1.00
O2       0.52350    1.02350    1.08820   1.00
C1       0.50000    1.00000    0.89480   1.00
C1       0.50000    0.89480    1.00000   1.00
C1       0.60520    1.00000    1.00000   1.00
C1       0.39480    1.00000    1.00000   1.00
C1       0.50000    1.10520    1.00000   1.00
C1       0.50000    1.00000    1.10520   1.00
C2       0.75000    0.75000    0.89720   1.00
C3a      0.76747    0.78025    0.91780   1.00
C3a      0.73253    0.71975    0.91780   1.00
H1       0.77961    0.80129    0.90380   1.00
H1       0.72039    0.69871    0.90380   1.00
C3a      0.76764    0.78056    0.95870   1.00
C3a      0.73236    0.71944    0.95870   1.00
H11      0.77982    0.80165    0.97250   1.00
H12      0.72018    0.69835    0.97250   1.00
C4       0.75000    0.75000    0.97940   1.00
C4       0.75000    0.75000    0.02060   1.00
C3a      0.73236    0.71944    0.04130   1.00
C3a      0.76764    0.78056    0.04130   1.00
H13      0.72018    0.69835    0.02750   1.00
H14      0.77982    0.80165    0.02750   1.00
C3a      0.73253    0.71975    0.08220   1.00
C3a      0.76747    0.78025    0.08220   1.00
H1       0.72039    0.69871    0.09620   1.00
H1       0.77961    0.80129    0.09620   1.00
C2       0.75000    0.75000    0.10280   1.00
C2       0.75000    0.89720    0.75000   1.00
C3a      0.78025    0.91780    0.76747   1.00
C3a      0.71975    0.91780    0.73253   1.00
H1       0.80129    0.90380    0.77961   1.00
H1       0.69871    0.90380    0.72039   1.00
C3a      0.78056    0.95870    0.76764   1.00
C3a      0.71944    0.95870    0.73236   1.00
H11      0.80165    0.97250    0.77982   1.00
H12      0.69835    0.97250    0.72018   1.00
C4       0.75000    0.97940    0.75000   1.00
C4       0.75000    0.02060    0.75000   1.00
C3a      0.71944    0.04130    0.73236   1.00
C3a      0.78056    0.04130    0.76764   1.00
H13      0.69835    0.02750    0.72018   1.00
H14      0.80165    0.02750    0.77982   1.00
C3a      0.71975    0.08220    0.73253   1.00
C3a      0.78025    0.08220    0.76747   1.00
H1       0.69871    0.09620    0.72039   1.00
H1       0.80129    0.09620    0.77961   1.00
C2       0.75000    0.10280    0.75000   1.00
C2       0.60280    0.75000    0.75000   1.00
C3a      0.58220    0.76747    0.71975   1.00
C3a      0.58220    0.73253    0.78025   1.00
H1       0.59620    0.77961    0.69871   1.00
H1       0.59620    0.72039    0.80129   1.00
C3a      0.54130    0.76764    0.71944   1.00
C3a      0.54130    0.73236    0.78056   1.00
H11      0.52750    0.77982    0.69835   1.00
H12      0.52750    0.72018    0.80165   1.00
C4       0.52060    0.75000    0.75000   1.00
C4       0.47940    0.75000    0.75000   1.00
C3a      0.45870    0.73236    0.78056   1.00
C3a      0.45870    0.76764    0.71944   1.00
H13      0.47250    0.72018    0.80165   1.00
H14      0.47250    0.77982    0.69835   1.00
C3a      0.41780    0.73253    0.78025   1.00
C3a      0.41780    0.76747    0.71975   1.00
H1       0.40380    0.72039    0.80129   1.00
H1       0.40380    0.77961    0.69871   1.00
C2       0.39720    0.75000    0.75000   1.00
C2       0.89720    0.75000    0.75000   1.00
C3a      0.91780    0.76747    0.78025   1.00
C3a      0.91780    0.73253    0.71975   1.00
H1       0.90380    0.77961    0.80129   1.00
H1       0.90380    0.72039    0.69871   1.00
C3a      0.95870    0.76764    0.78056   1.00
C3a      0.95870    0.73236    0.71944   1.00
H11      0.97250    0.77982    0.80165   1.00
H12      0.97250    0.72018    0.69835   1.00
C4       0.97940    0.75000    0.75000   1.00
C4       0.02060    0.75000    0.75000   1.00
C3a      0.04130    0.73236    0.71944   1.00
C3a      0.04130    0.76764    0.78056   1.00
H13      0.02750    0.72018    0.69835   1.00
H14      0.02750    0.77982    0.80165   1.00
C3a      0.08220    0.73253    0.71975   1.00
C3a      0.08220    0.76747    0.78025   1.00
H1       0.09620    0.72039    0.69871   1.00
H1       0.09620    0.77961    0.80129   1.00
C2       0.10280    0.75000    0.75000   1.00
C2       0.75000    0.60280    0.75000   1.00
C3a      0.71975    0.58220    0.76747   1.00
C3a      0.78025    0.58220    0.73253   1.00
H1       0.69871    0.59620    0.77961   1.00
H1       0.80129    0.59620    0.72039   1.00
C3a      0.71944    0.54130    0.76764   1.00
C3a      0.78056    0.54130    0.73236   1.00
H11      0.69835    0.52750    0.77982   1.00
H12      0.80165    0.52750    0.72018   1.00
C4       0.75000    0.52060    0.75000   1.00
C4       0.75000    0.47940    0.75000   1.00
C3a      0.78056    0.45870    0.73236   1.00
C3a      0.71944    0.45870    0.76764   1.00
H13      0.80165    0.47250    0.72018   1.00
H14      0.69835    0.47250    0.77982   1.00
C3a      0.78025    0.41780    0.73253   1.00
C3a      0.71975    0.41780    0.76747   1.00
H1       0.80129    0.40380    0.72039   1.00
H1       0.69871    0.40380    0.77961   1.00
C2       0.75000    0.39720    0.75000   1.00
C2       0.75000    0.75000    0.60280   1.00
C3a      0.76747    0.71975    0.58220   1.00
C3a      0.73253    0.78025    0.58220   1.00
H1       0.77961    0.69871    0.59620   1.00
H1       0.72039    0.80129    0.59620   1.00
C3a      0.76764    0.71944    0.54130   1.00
C3a      0.73236    0.78056    0.54130   1.00
H11      0.77982    0.69835    0.52750   1.00
H12      0.72018    0.80165    0.52750   1.00
C4       0.75000    0.75000    0.52060   1.00
C4       0.75000    0.75000    0.47940   1.00
C3a      0.73236    0.78056    0.45870   1.00
C3a      0.76764    0.71944    0.45870   1.00
H13      0.72018    0.80165    0.47250   1.00
H14      0.77982    0.69835    0.47250   1.00
C3a      0.73253    0.78025    0.41780   1.00
C3a      0.76747    0.71975    0.41780   1.00
H1       0.72039    0.80129    0.40380   1.00
H1       0.77961    0.69871    0.40380   1.00
C2       0.75000    0.75000    0.39720   1.00
C2       0.25000    0.25000    0.89720   1.00
C3a      0.26747    0.28025    0.91780   1.00
C3a      0.23253    0.21975    0.91780   1.00
H1       0.27961    0.30129    0.90380   1.00
H1       0.22039    0.19871    0.90380   1.00
C3a      0.26764    0.28056    0.95870   1.00
C3a      0.23236    0.21944    0.95870   1.00
H11      0.27982    0.30165    0.97250   1.00
H12      0.22018    0.19835    0.97250   1.00
C4       0.25000    0.25000    0.97940   1.00
C4       0.25000    0.25000    0.02060   1.00
C3a      0.23236    0.21944    0.04130   1.00
C3a      0.26764    0.28056    0.04130   1.00
H13      0.22018    0.19835    0.02750   1.00
H14      0.27982    0.30165    0.02750   1.00
C3a      0.23253    0.21975    0.08220   1.00
C3a      0.26747    0.28025    0.08220   1.00
H1       0.22039    0.19871    0.09620   1.00
H1       0.27961    0.30129    0.09620   1.00
C2       0.25000    0.25000    0.10280   1.00
C2       0.25000    0.39720    0.75000   1.00
C3a      0.28025    0.41780    0.76747   1.00
C3a      0.21975    0.41780    0.73253   1.00
H1       0.30129    0.40380    0.77961   1.00
H1       0.19871    0.40380    0.72039   1.00
C3a      0.28056    0.45870    0.76764   1.00
C3a      0.21944    0.45870    0.73236   1.00
H11      0.30165    0.47250    0.77982   1.00
H12      0.19835    0.47250    0.72018   1.00
C4       0.25000    0.47940    0.75000   1.00
C4       0.25000    0.52060    0.75000   1.00
C3a      0.21944    0.54130    0.73236   1.00
C3a      0.28056    0.54130    0.76764   1.00
H13      0.19835    0.52750    0.72018   1.00
H14      0.30165    0.52750    0.77982   1.00
C3a      0.21975    0.58220    0.73253   1.00
C3a      0.28025    0.58220    0.76747   1.00
H1       0.19871    0.59620    0.72039   1.00
H1       0.30129    0.59620    0.77961   1.00
C2       0.25000    0.60280    0.75000   1.00
C2       0.10280    0.25000    0.75000   1.00
C3a      0.08220    0.26747    0.71975   1.00
C3a      0.08220    0.23253    0.78025   1.00
H1       0.09620    0.27961    0.69871   1.00
H1       0.09620    0.22039    0.80129   1.00
C3a      0.04130    0.26764    0.71944   1.00
C3a      0.04130    0.23236    0.78056   1.00
H11      0.02750    0.27982    0.69835   1.00
H12      0.02750    0.22018    0.80165   1.00
C4       0.02060    0.25000    0.75000   1.00
C4       0.97940    0.25000    0.75000   1.00
C3a      0.95870    0.23236    0.78056   1.00
C3a      0.95870    0.26764    0.71944   1.00
H13      0.97250    0.22018    0.80165   1.00
H14      0.97250    0.27982    0.69835   1.00
C3a      0.91780    0.23253    0.78025   1.00
C3a      0.91780    0.26747    0.71975   1.00
H1       0.90380    0.22039    0.80129   1.00
H1       0.90380    0.27961    0.69871   1.00
C2       0.89720    0.25000    0.75000   1.00
C2       0.39720    0.25000    0.75000   1.00
C3a      0.41780    0.26747    0.78025   1.00
C3a      0.41780    0.23253    0.71975   1.00
H1       0.40380    0.27961    0.80129   1.00
H1       0.40380    0.22039    0.69871   1.00
C3a      0.45870    0.26764    0.78056   1.00
C3a      0.45870    0.23236    0.71944   1.00
H11      0.47250    0.27982    0.80165   1.00
H12      0.47250    0.22018    0.69835   1.00
C4       0.47940    0.25000    0.75000   1.00
C4       0.52060    0.25000    0.75000   1.00
C3a      0.54130    0.23236    0.71944   1.00
C3a      0.54130    0.26764    0.78056   1.00
H13      0.52750    0.22018    0.69835   1.00
H14      0.52750    0.27982    0.80165   1.00
C3a      0.58220    0.23253    0.71975   1.00
C3a      0.58220    0.26747    0.78025   1.00
H1       0.59620    0.22039    0.69871   1.00
H1       0.59620    0.27961    0.80129   1.00
C2       0.60280    0.25000    0.75000   1.00
C2       0.25000    0.10280    0.75000   1.00
C3a      0.21975    0.08220    0.76747   1.00
C3a      0.28025    0.08220    0.73253   1.00
H1       0.19871    0.09620    0.77961   1.00
H1       0.30129    0.09620    0.72039   1.00
C3a      0.21944    0.04130    0.76764   1.00
C3a      0.28056    0.04130    0.73236   1.00
H11      0.19835    0.02750    0.77982   1.00
H12      0.30165    0.02750    0.72018   1.00
C4       0.25000    0.02060    0.75000   1.00
C4       0.25000    0.97940    0.75000   1.00
C3a      0.28056    0.95870    0.73236   1.00
C3a      0.21944    0.95870    0.76764   1.00
H13      0.30165    0.97250    0.72018   1.00
H14      0.19835    0.97250    0.77982   1.00
C3a      0.28025    0.91780    0.73253   1.00
C3a      0.21975    0.91780    0.76747   1.00
H1       0.30129    0.90380    0.72039   1.00
H1       0.19871    0.90380    0.77961   1.00
C2       0.25000    0.89720    0.75000   1.00
C2       0.25000    0.25000    0.60280   1.00
C3a      0.26747    0.21975    0.58220   1.00
C3a      0.23253    0.28025    0.58220   1.00
H1       0.27961    0.19871    0.59620   1.00
H1       0.22039    0.30129    0.59620   1.00
C3a      0.26764    0.21944    0.54130   1.00
C3a      0.23236    0.28056    0.54130   1.00
H11      0.27982    0.19835    0.52750   1.00
H12      0.22018    0.30165    0.52750   1.00
C4       0.25000    0.25000    0.52060   1.00
C4       0.25000    0.25000    0.47940   1.00
C3a      0.23236    0.28056    0.45870   1.00
C3a      0.26764    0.21944    0.45870   1.00
H13      0.22018    0.30165    0.47250   1.00
H14      0.27982    0.19835    0.47250   1.00
C3a      0.23253    0.28025    0.41780   1.00
C3a      0.26747    0.21975    0.41780   1.00
H1       0.22039    0.30129    0.40380   1.00
H1       0.27961    0.19871    0.40380   1.00
C2       0.25000    0.25000    0.39720   1.00
C2       0.25000    0.75000    0.39720   1.00
C3a      0.26747    0.78025    0.41780   1.00
C3a      0.23253    0.71975    0.41780   1.00
H1       0.27961    0.80129    0.40380   1.00
H1       0.22039    0.69871    0.40380   1.00
C3a      0.26764    0.78056    0.45870   1.00
C3a      0.23236    0.71944    0.45870   1.00
H11      0.27982    0.80165    0.47250   1.00
H12      0.22018    0.69835    0.47250   1.00
C4       0.25000    0.75000    0.47940   1.00
C4       0.25000    0.75000    0.52060   1.00
C3a      0.23236    0.71944    0.54130   1.00
C3a      0.26764    0.78056    0.54130   1.00
H13      0.22018    0.69835    0.52750   1.00
H14      0.27982    0.80165    0.52750   1.00
C3a      0.23253    0.71975    0.58220   1.00
C3a      0.26747    0.78025    0.58220   1.00
H1       0.22039    0.69871    0.59620   1.00
H1       0.27961    0.80129    0.59620   1.00
C2       0.25000    0.75000    0.60280   1.00
C2       0.25000    0.89720    0.25000   1.00
C3a      0.28025    0.91780    0.26747   1.00
C3a      0.21975    0.91780    0.23253   1.00
H1       0.30129    0.90380    0.27961   1.00
H1       0.19871    0.90380    0.22039   1.00
C3a      0.28056    0.95870    0.26764   1.00
C3a      0.21944    0.95870    0.23236   1.00
H11      0.30165    0.97250    0.27982   1.00
H12      0.19835    0.97250    0.22018   1.00
C4       0.25000    0.97940    0.25000   1.00
C4       0.25000    0.02060    0.25000   1.00
C3a      0.21944    0.04130    0.23236   1.00
C3a      0.28056    0.04130    0.26764   1.00
H13      0.19835    0.02750    0.22018   1.00
H14      0.30165    0.02750    0.27982   1.00
C3a      0.21975    0.08220    0.23253   1.00
C3a      0.28025    0.08220    0.26747   1.00
H1       0.19871    0.09620    0.22039   1.00
H1       0.30129    0.09620    0.27961   1.00
C2       0.25000    0.10280    0.25000   1.00
C2       0.10280    0.75000    0.25000   1.00
C3a      0.08220    0.76747    0.21975   1.00
C3a      0.08220    0.73253    0.28025   1.00
H1       0.09620    0.77961    0.19871   1.00
H1       0.09620    0.72039    0.30129   1.00
C3a      0.04130    0.76764    0.21944   1.00
C3a      0.04130    0.73236    0.28056   1.00
H11      0.02750    0.77982    0.19835   1.00
H12      0.02750    0.72018    0.30165   1.00
C4       0.02060    0.75000    0.25000   1.00
C4       0.97940    0.75000    0.25000   1.00
C3a      0.95870    0.73236    0.28056   1.00
C3a      0.95870    0.76764    0.21944   1.00
H13      0.97250    0.72018    0.30165   1.00
H14      0.97250    0.77982    0.19835   1.00
C3a      0.91780    0.73253    0.28025   1.00
C3a      0.91780    0.76747    0.21975   1.00
H1       0.90380    0.72039    0.30129   1.00
H1       0.90380    0.77961    0.19871   1.00
C2       0.89720    0.75000    0.25000   1.00
C2       0.39720    0.75000    0.25000   1.00
C3a      0.41780    0.76747    0.28025   1.00
C3a      0.41780    0.73253    0.21975   1.00
H1       0.40380    0.77961    0.30129   1.00
H1       0.40380    0.72039    0.19871   1.00
C3a      0.45870    0.76764    0.28056   1.00
C3a      0.45870    0.73236    0.21944   1.00
H11      0.47250    0.77982    0.30165   1.00
H12      0.47250    0.72018    0.19835   1.00
C4       0.47940    0.75000    0.25000   1.00
C4       0.52060    0.75000    0.25000   1.00
C3a      0.54130    0.73236    0.21944   1.00
C3a      0.54130    0.76764    0.28056   1.00
H13      0.52750    0.72018    0.19835   1.00
H14      0.52750    0.77982    0.30165   1.00
C3a      0.58220    0.73253    0.21975   1.00
C3a      0.58220    0.76747    0.28025   1.00
H1       0.59620    0.72039    0.19871   1.00
H1       0.59620    0.77961    0.30129   1.00
C2       0.60280    0.75000    0.25000   1.00
C2       0.25000    0.60280    0.25000   1.00
C3a      0.21975    0.58220    0.26747   1.00
C3a      0.28025    0.58220    0.23253   1.00
H1       0.19871    0.59620    0.27961   1.00
H1       0.30129    0.59620    0.22039   1.00
C3a      0.21944    0.54130    0.26764   1.00
C3a      0.28056    0.54130    0.23236   1.00
H11      0.19835    0.52750    0.27982   1.00
H12      0.30165    0.52750    0.22018   1.00
C4       0.25000    0.52060    0.25000   1.00
C4       0.25000    0.47940    0.25000   1.00
C3a      0.28056    0.45870    0.23236   1.00
C3a      0.21944    0.45870    0.26764   1.00
H13      0.30165    0.47250    0.22018   1.00
H14      0.19835    0.47250    0.27982   1.00
C3a      0.28025    0.41780    0.23253   1.00
C3a      0.21975    0.41780    0.26747   1.00
H1       0.30129    0.40380    0.22039   1.00
H1       0.19871    0.40380    0.27961   1.00
C2       0.25000    0.39720    0.25000   1.00
C2       0.25000    0.75000    0.10280   1.00
C3a      0.26747    0.71975    0.08220   1.00
C3a      0.23253    0.78025    0.08220   1.00
H1       0.27961    0.69871    0.09620   1.00
H1       0.22039    0.80129    0.09620   1.00
C3a      0.26764    0.71944    0.04130   1.00
C3a      0.23236    0.78056    0.04130   1.00
H11      0.27982    0.69835    0.02750   1.00
H12      0.22018    0.80165    0.02750   1.00
C4       0.25000    0.75000    0.02060   1.00
C4       0.25000    0.75000    0.97940   1.00
C3a      0.23236    0.78056    0.95870   1.00
C3a      0.26764    0.71944    0.95870   1.00
H13      0.22018    0.80165    0.97250   1.00
H14      0.27982    0.69835    0.97250   1.00
C3a      0.23253    0.78025    0.91780   1.00
C3a      0.26747    0.71975    0.91780   1.00
H1       0.22039    0.80129    0.90380   1.00
H1       0.27961    0.69871    0.90380   1.00
C2       0.25000    0.75000    0.89720   1.00
C2       0.75000    0.25000    0.39720   1.00
C3a      0.76747    0.28025    0.41780   1.00
C3a      0.73253    0.21975    0.41780   1.00
H1       0.77961    0.30129    0.40380   1.00
H1       0.72039    0.19871    0.40380   1.00
C3a      0.76764    0.28056    0.45870   1.00
C3a      0.73236    0.21944    0.45870   1.00
H11      0.77982    0.30165    0.47250   1.00
H12      0.72018    0.19835    0.47250   1.00
C4       0.75000    0.25000    0.47940   1.00
C4       0.75000    0.25000    0.52060   1.00
C3a      0.73236    0.21944    0.54130   1.00
C3a      0.76764    0.28056    0.54130   1.00
H13      0.72018    0.19835    0.52750   1.00
H14      0.77982    0.30165    0.52750   1.00
C3a      0.73253    0.21975    0.58220   1.00
C3a      0.76747    0.28025    0.58220   1.00
H1       0.72039    0.19871    0.59620   1.00
H1       0.77961    0.30129    0.59620   1.00
C2       0.75000    0.25000    0.60280   1.00
C2       0.75000    0.39720    0.25000   1.00
C3a      0.78025    0.41780    0.26747   1.00
C3a      0.71975    0.41780    0.23253   1.00
H1       0.80129    0.40380    0.27961   1.00
H1       0.69871    0.40380    0.22039   1.00
C3a      0.78056    0.45870    0.26764   1.00
C3a      0.71944    0.45870    0.23236   1.00
H11      0.80165    0.47250    0.27982   1.00
H12      0.69835    0.47250    0.22018   1.00
C4       0.75000    0.47940    0.25000   1.00
C4       0.75000    0.52060    0.25000   1.00
C3a      0.71944    0.54130    0.23236   1.00
C3a      0.78056    0.54130    0.26764   1.00
H13      0.69835    0.52750    0.22018   1.00
H14      0.80165    0.52750    0.27982   1.00
C3a      0.71975    0.58220    0.23253   1.00
C3a      0.78025    0.58220    0.26747   1.00
H1       0.69871    0.59620    0.22039   1.00
H1       0.80129    0.59620    0.27961   1.00
C2       0.75000    0.60280    0.25000   1.00
C2       0.60280    0.25000    0.25000   1.00
C3a      0.58220    0.26747    0.21975   1.00
C3a      0.58220    0.23253    0.28025   1.00
H1       0.59620    0.27961    0.19871   1.00
H1       0.59620    0.22039    0.30129   1.00
C3a      0.54130    0.26764    0.21944   1.00
C3a      0.54130    0.23236    0.28056   1.00
H11      0.52750    0.27982    0.19835   1.00
H12      0.52750    0.22018    0.30165   1.00
C4       0.52060    0.25000    0.25000   1.00
C4       0.47940    0.25000    0.25000   1.00
C3a      0.45870    0.23236    0.28056   1.00
C3a      0.45870    0.26764    0.21944   1.00
H13      0.47250    0.22018    0.30165   1.00
H14      0.47250    0.27982    0.19835   1.00
C3a      0.41780    0.23253    0.28025   1.00
C3a      0.41780    0.26747    0.21975   1.00
H1       0.40380    0.22039    0.30129   1.00
H1       0.40380    0.27961    0.19871   1.00
C2       0.39720    0.25000    0.25000   1.00
C2       0.89720    0.25000    0.25000   1.00
C3a      0.91780    0.26747    0.28025   1.00
C3a      0.91780    0.23253    0.21975   1.00
H1       0.90380    0.27961    0.30129   1.00
H1       0.90380    0.22039    0.19871   1.00
C3a      0.95870    0.26764    0.28056   1.00
C3a      0.95870    0.23236    0.21944   1.00
H11      0.97250    0.27982    0.30165   1.00
H12      0.97250    0.22018    0.19835   1.00
C4       0.97940    0.25000    0.25000   1.00
C4       0.02060    0.25000    0.25000   1.00
C3a      0.04130    0.23236    0.21944   1.00
C3a      0.04130    0.26764    0.28056   1.00
H13      0.02750    0.22018    0.19835   1.00
H14      0.02750    0.27982    0.30165   1.00
C3a      0.08220    0.23253    0.21975   1.00
C3a      0.08220    0.26747    0.28025   1.00
H1       0.09620    0.22039    0.19871   1.00
H1       0.09620    0.27961    0.30129   1.00
C2       0.10280    0.25000    0.25000   1.00
C2       0.75000    0.10280    0.25000   1.00
C3a      0.71975    0.08220    0.26747   1.00
C3a      0.78025    0.08220    0.23253   1.00
H1       0.69871    0.09620    0.27961   1.00
H1       0.80129    0.09620    0.22039   1.00
C3a      0.71944    0.04130    0.26764   1.00
C3a      0.78056    0.04130    0.23236   1.00
H11      0.69835    0.02750    0.27982   1.00
H12      0.80165    0.02750    0.22018   1.00
C4       0.75000    0.02060    0.25000   1.00
C4       0.75000    0.97940    0.25000   1.00
C3a      0.78056    0.95870    0.23236   1.00
C3a      0.71944    0.95870    0.26764   1.00
H13      0.80165    0.97250    0.22018   1.00
H14      0.69835    0.97250    0.27982   1.00
C3a      0.78025    0.91780    0.23253   1.00
C3a      0.71975    0.91780    0.26747   1.00
H1       0.80129    0.90380    0.22039   1.00
H1       0.69871    0.90380    0.27961   1.00
C2       0.75000    0.89720    0.25000   1.00
C2       0.75000    0.25000    0.10280   1.00
C3a      0.76747    0.21975    0.08220   1.00
C3a      0.73253    0.28025    0.08220   1.00
H1       0.77961    0.19871    0.09620   1.00
H1       0.72039    0.30129    0.09620   1.00
C3a      0.76764    0.21944    0.04130   1.00
C3a      0.73236    0.28056    0.04130   1.00
H11      0.77982    0.19835    0.02750   1.00
H12      0.72018    0.30165    0.02750   1.00
C4       0.75000    0.25000    0.02060   1.00
C4       0.75000    0.25000    0.97940   1.00
C3a      0.73236    0.28056    0.95870   1.00
C3a      0.76764    0.21944    0.95870   1.00
H13      0.72018    0.30165    0.97250   1.00
H14      0.77982    0.19835    0.97250   1.00
C3a      0.73253    0.28025    0.91780   1.00
C3a      0.76747    0.21975    0.91780   1.00
H1       0.72039    0.30129    0.90380   1.00
H1       0.77961    0.19871    0.90380   1.00
C2       0.75000    0.25000    0.89720   1.00
C2       1.00000    1.00000    1.14720   1.00
C3a      1.01747    1.03025    1.16780   1.00
C3a      0.98253    0.96975    1.16780   1.00
H1       1.02961    1.05129    1.15380   1.00
H1       0.97039    0.94871    1.15380   1.00
C3a      1.01764    1.03056    1.20870   1.00
C3a      0.98236    0.96944    1.20870   1.00
H11      1.02982    1.05165    1.22250   1.00
H12      0.97018    0.94835    1.22250   1.00
C4       1.00000    1.00000    1.22940   1.00
C4       1.00000    1.00000    0.27060   1.00
C3a      0.98236    0.96944    0.29130   1.00
C3a      1.01764    1.03056    0.29130   1.00
H13      0.97018    0.94835    0.27750   1.00
H14      1.02982    1.05165    0.27750   1.00
C3a      0.98253    0.96975    0.33220   1.00
C3a      1.01747    1.03025    0.33220   1.00
H1       0.97039    0.94871    0.34620   1.00
H1       1.02961    1.05129    0.34620   1.00
C2       1.00000    1.00000    0.35280   1.00
C2       1.00000    1.14720    1.00000   1.00
C3a      1.03025    1.16780    1.01747   1.00
C3a      0.96975    1.16780    0.98253   1.00
H1       1.05129    1.15380    1.02961   1.00
H1       0.94871    1.15380    0.97039   1.00
C3a      1.03056    1.20870    1.01764   1.00
C3a      0.96944    1.20870    0.98236   1.00
H11      1.05165    1.22250    1.02982   1.00
H12      0.94835    1.22250    0.97018   1.00
C4       1.00000    1.22940    1.00000   1.00
C4       1.00000    0.27060    1.00000   1.00
C3a      0.96944    0.29130    0.98236   1.00
C3a      1.03056    0.29130    1.01764   1.00
H13      0.94835    0.27750    0.97018   1.00
H14      1.05165    0.27750    1.02982   1.00
C3a      0.96975    0.33220    0.98253   1.00
C3a      1.03025    0.33220    1.01747   1.00
H1       0.94871    0.34620    0.97039   1.00
H1       1.05129    0.34620    1.02961   1.00
C2       1.00000    0.35280    1.00000   1.00
C2       0.85280    1.00000    1.00000   1.00
C3a      0.83220    1.01747    0.96975   1.00
C3a      0.83220    0.98253    1.03025   1.00
H1       0.84620    1.02961    0.94871   1.00
H1       0.84620    0.97039    1.05129   1.00
C3a      0.79130    1.01764    0.96944   1.00
C3a      0.79130    0.98236    1.03056   1.00
H11      0.77750    1.02982    0.94835   1.00
H12      0.77750    0.97018    1.05165   1.00
C4       0.77060    1.00000    1.00000   1.00
C4       0.72940    1.00000    1.00000   1.00
C3a      0.70870    0.98236    1.03056   1.00
C3a      0.70870    1.01764    0.96944   1.00
H13      0.72250    0.97018    1.05165   1.00
H14      0.72250    1.02982    0.94835   1.00
C3a      0.66780    0.98253    1.03025   1.00
C3a      0.66780    1.01747    0.96975   1.00
H1       0.65380    0.97039    1.05129   1.00
H1       0.65380    1.02961    0.94871   1.00
C2       0.64720    1.00000    1.00000   1.00
C2       1.14720    1.00000    1.00000   1.00
C3a      1.16780    1.01747    1.03025   1.00
C3a      1.16780    0.98253    0.96975   1.00
H1       1.15380    1.02961    1.05129   1.00
H1       1.15380    0.97039    0.94871   1.00
C3a      1.20870    1.01764    1.03056   1.00
C3a      1.20870    0.98236    0.96944   1.00
H11      1.22250    1.02982    1.05165   1.00
H12      1.22250    0.97018    0.94835   1.00
C4       1.22940    1.00000    1.00000   1.00
C4       0.27060    1.00000    1.00000   1.00
C3a      0.29130    0.98236    0.96944   1.00
C3a      0.29130    1.01764    1.03056   1.00
H13      0.27750    0.97018    0.94835   1.00
H14      0.27750    1.02982    1.05165   1.00
C3a      0.33220    0.98253    0.96975   1.00
C3a      0.33220    1.01747    1.03025   1.00
H1       0.34620    0.97039    0.94871   1.00
H1       0.34620    1.02961    1.05129   1.00
C2       0.35280    1.00000    1.00000   1.00
C2       1.00000    0.85280    1.00000   1.00
C3a      0.96975    0.83220    1.01747   1.00
C3a      1.03025    0.83220    0.98253   1.00
H1       0.94871    0.84620    1.02961   1.00
H1       1.05129    0.84620    0.97039   1.00
C3a      0.96944    0.79130    1.01764   1.00
C3a      1.03056    0.79130    0.98236   1.00
H11      0.94835    0.77750    1.02982   1.00
H12      1.05165    0.77750    0.97018   1.00
C4       1.00000    0.77060    1.00000   1.00
C4       1.00000    0.72940    1.00000   1.00
C3a      1.03056    0.70870    0.98236   1.00
C3a      0.96944    0.70870    1.01764   1.00
H13      1.05165    0.72250    0.97018   1.00
H14      0.94835    0.72250    1.02982   1.00
C3a      1.03025    0.66780    0.98253   1.00
C3a      0.96975    0.66780    1.01747   1.00
H1       1.05129    0.65380    0.97039   1.00
H1       0.94871    0.65380    1.02961   1.00
C2       1.00000    0.64720    1.00000   1.00
C2       1.00000    1.00000    0.85280   1.00
C3a      1.01747    0.96975    0.83220   1.00
C3a      0.98253    1.03025    0.83220   1.00
H1       1.02961    0.94871    0.84620   1.00
H1       0.97039    1.05129    0.84620   1.00
C3a      1.01764    0.96944    0.79130   1.00
C3a      0.98236    1.03056    0.79130   1.00
H11      1.02982    0.94835    0.77750   1.00
H12      0.97018    1.05165    0.77750   1.00
C4       1.00000    1.00000    0.77060   1.00
C4       1.00000    1.00000    0.72940   1.00
C3a      0.98236    1.03056    0.70870   1.00
C3a      1.01764    0.96944    0.70870   1.00
H13      0.97018    1.05165    0.72250   1.00
H14      1.02982    0.94835    0.72250   1.00
C3a      0.98253    1.03025    0.66780   1.00
C3a      1.01747    0.96975    0.66780   1.00
H1       0.97039    1.05129    0.65380   1.00
H1       1.02961    0.94871    0.65380   1.00
C2       1.00000    1.00000    0.64720   1.00
C2       0.50000    0.50000    1.14720   1.00
C3a      0.51747    0.53025    1.16780   1.00
C3a      0.48253    0.46975    1.16780   1.00
H1       0.52961    0.55129    1.15380   1.00
H1       0.47039    0.44871    1.15380   1.00
C3a      0.51764    0.53056    1.20870   1.00
C3a      0.48236    0.46944    1.20870   1.00
H11      0.52982    0.55165    1.22250   1.00
H12      0.47018    0.44835    1.22250   1.00
C4       0.50000    0.50000    1.22940   1.00
C4       0.50000    0.50000    0.27060   1.00
C3a      0.48236    0.46944    0.29130   1.00
C3a      0.51764    0.53056    0.29130   1.00
H13      0.47018    0.44835    0.27750   1.00
H14      0.52982    0.55165    0.27750   1.00
C3a      0.48253    0.46975    0.33220   1.00
C3a      0.51747    0.53025    0.33220   1.00
H1       0.47039    0.44871    0.34620   1.00
H1       0.52961    0.55129    0.34620   1.00
C2       0.50000    0.50000    0.35280   1.00
C2       0.50000    0.64720    1.00000   1.00
C3a      0.53025    0.66780    1.01747   1.00
C3a      0.46975    0.66780    0.98253   1.00
H1       0.55129    0.65380    1.02961   1.00
H1       0.44871    0.65380    0.97039   1.00
C3a      0.53056    0.70870    1.01764   1.00
C3a      0.46944    0.70870    0.98236   1.00
H11      0.55165    0.72250    1.02982   1.00
H12      0.44835    0.72250    0.97018   1.00
C4       0.50000    0.72940    1.00000   1.00
C4       0.50000    0.77060    1.00000   1.00
C3a      0.46944    0.79130    0.98236   1.00
C3a      0.53056    0.79130    1.01764   1.00
H13      0.44835    0.77750    0.97018   1.00
H14      0.55165    0.77750    1.02982   1.00
C3a      0.46975    0.83220    0.98253   1.00
C3a      0.53025    0.83220    1.01747   1.00
H1       0.44871    0.84620    0.97039   1.00
H1       0.55129    0.84620    1.02961   1.00
C2       0.50000    0.85280    1.00000   1.00
C2       0.35280    0.50000    1.00000   1.00
C3a      0.33220    0.51747    0.96975   1.00
C3a      0.33220    0.48253    1.03025   1.00
H1       0.34620    0.52961    0.94871   1.00
H1       0.34620    0.47039    1.05129   1.00
C3a      0.29130    0.51764    0.96944   1.00
C3a      0.29130    0.48236    1.03056   1.00
H11      0.27750    0.52982    0.94835   1.00
H12      0.27750    0.47018    1.05165   1.00
C4       0.27060    0.50000    1.00000   1.00
C4       1.22940    0.50000    1.00000   1.00
C3a      1.20870    0.48236    1.03056   1.00
C3a      1.20870    0.51764    0.96944   1.00
H13      1.22250    0.47018    1.05165   1.00
H14      1.22250    0.52982    0.94835   1.00
C3a      1.16780    0.48253    1.03025   1.00
C3a      1.16780    0.51747    0.96975   1.00
H1       1.15380    0.47039    1.05129   1.00
H1       1.15380    0.52961    0.94871   1.00
C2       1.14720    0.50000    1.00000   1.00
C2       0.64720    0.50000    1.00000   1.00
C3a      0.66780    0.51747    1.03025   1.00
C3a      0.66780    0.48253    0.96975   1.00
H1       0.65380    0.52961    1.05129   1.00
H1       0.65380    0.47039    0.94871   1.00
C3a      0.70870    0.51764    1.03056   1.00
C3a      0.70870    0.48236    0.96944   1.00
H11      0.72250    0.52982    1.05165   1.00
H12      0.72250    0.47018    0.94835   1.00
C4       0.72940    0.50000    1.00000   1.00
C4       0.77060    0.50000    1.00000   1.00
C3a      0.79130    0.48236    0.96944   1.00
C3a      0.79130    0.51764    1.03056   1.00
H13      0.77750    0.47018    0.94835   1.00
H14      0.77750    0.52982    1.05165   1.00
C3a      0.83220    0.48253    0.96975   1.00
C3a      0.83220    0.51747    1.03025   1.00
H1       0.84620    0.47039    0.94871   1.00
H1       0.84620    0.52961    1.05129   1.00
C2       0.85280    0.50000    1.00000   1.00
C2       0.50000    0.35280    1.00000   1.00
C3a      0.46975    0.33220    1.01747   1.00
C3a      0.53025    0.33220    0.98253   1.00
H1       0.44871    0.34620    1.02961   1.00
H1       0.55129    0.34620    0.97039   1.00
C3a      0.46944    0.29130    1.01764   1.00
C3a      0.53056    0.29130    0.98236   1.00
H11      0.44835    0.27750    1.02982   1.00
H12      0.55165    0.27750    0.97018   1.00
C4       0.50000    0.27060    1.00000   1.00
C4       0.50000    1.22940    1.00000   1.00
C3a      0.53056    1.20870    0.98236   1.00
C3a      0.46944    1.20870    1.01764   1.00
H13      0.55165    1.22250    0.97018   1.00
H14      0.44835    1.22250    1.02982   1.00
C3a      0.53025    1.16780    0.98253   1.00
C3a      0.46975    1.16780    1.01747   1.00
H1       0.55129    1.15380    0.97039   1.00
H1       0.44871    1.15380    1.02961   1.00
C2       0.50000    1.14720    1.00000   1.00
C2       0.50000    0.50000    0.85280   1.00
C3a      0.51747    0.46975    0.83220   1.00
C3a      0.48253    0.53025    0.83220   1.00
H1       0.52961    0.44871    0.84620   1.00
H1       0.47039    0.55129    0.84620   1.00
C3a      0.51764    0.46944    0.79130   1.00
C3a      0.48236    0.53056    0.79130   1.00
H11      0.52982    0.44835    0.77750   1.00
H12      0.47018    0.55165    0.77750   1.00
C4       0.50000    0.50000    0.77060   1.00
C4       0.50000    0.50000    0.72940   1.00
C3a      0.48236    0.53056    0.70870   1.00
C3a      0.51764    0.46944    0.70870   1.00
H13      0.47018    0.55165    0.72250   1.00
H14      0.52982    0.44835    0.72250   1.00
C3a      0.48253    0.53025    0.66780   1.00
C3a      0.51747    0.46975    0.66780   1.00
H1       0.47039    0.55129    0.65380   1.00
H1       0.52961    0.44871    0.65380   1.00
C2       0.50000    0.50000    0.64720   1.00
C2       0.50000    1.00000    0.64720   1.00
C3a      0.51747    1.03025    0.66780   1.00
C3a      0.48253    0.96975    0.66780   1.00
H1       0.52961    1.05129    0.65380   1.00
H1       0.47039    0.94871    0.65380   1.00
C3a      0.51764    1.03056    0.70870   1.00
C3a      0.48236    0.96944    0.70870   1.00
H11      0.52982    1.05165    0.72250   1.00
H12      0.47018    0.94835    0.72250   1.00
C4       0.50000    1.00000    0.72940   1.00
C4       0.50000    1.00000    0.77060   1.00
C3a      0.48236    0.96944    0.79130   1.00
C3a      0.51764    1.03056    0.79130   1.00
H13      0.47018    0.94835    0.77750   1.00
H14      0.52982    1.05165    0.77750   1.00
C3a      0.48253    0.96975    0.83220   1.00
C3a      0.51747    1.03025    0.83220   1.00
H1       0.47039    0.94871    0.84620   1.00
H1       0.52961    1.05129    0.84620   1.00
C2       0.50000    1.00000    0.85280   1.00
C2       0.50000    1.14720    0.50000   1.00
C3a      0.53025    1.16780    0.51747   1.00
C3a      0.46975    1.16780    0.48253   1.00
H1       0.55129    1.15380    0.52961   1.00
H1       0.44871    1.15380    0.47039   1.00
C3a      0.53056    1.20870    0.51764   1.00
C3a      0.46944    1.20870    0.48236   1.00
H11      0.55165    1.22250    0.52982   1.00
H12      0.44835    1.22250    0.47018   1.00
C4       0.50000    1.22940    0.50000   1.00
C4       0.50000    0.27060    0.50000   1.00
C3a      0.46944    0.29130    0.48236   1.00
C3a      0.53056    0.29130    0.51764   1.00
H13      0.44835    0.27750    0.47018   1.00
H14      0.55165    0.27750    0.52982   1.00
C3a      0.46975    0.33220    0.48253   1.00
C3a      0.53025    0.33220    0.51747   1.00
H1       0.44871    0.34620    0.47039   1.00
H1       0.55129    0.34620    0.52961   1.00
C2       0.50000    0.35280    0.50000   1.00
C2       0.35280    1.00000    0.50000   1.00
C3a      0.33220    1.01747    0.46975   1.00
C3a      0.33220    0.98253    0.53025   1.00
H1       0.34620    1.02961    0.44871   1.00
H1       0.34620    0.97039    0.55129   1.00
C3a      0.29130    1.01764    0.46944   1.00
C3a      0.29130    0.98236    0.53056   1.00
H11      0.27750    1.02982    0.44835   1.00
H12      0.27750    0.97018    0.55165   1.00
C4       0.27060    1.00000    0.50000   1.00
C4       1.22940    1.00000    0.50000   1.00
C3a      1.20870    0.98236    0.53056   1.00
C3a      1.20870    1.01764    0.46944   1.00
H13      1.22250    0.97018    0.55165   1.00
H14      1.22250    1.02982    0.44835   1.00
C3a      1.16780    0.98253    0.53025   1.00
C3a      1.16780    1.01747    0.46975   1.00
H1       1.15380    0.97039    0.55129   1.00
H1       1.15380    1.02961    0.44871   1.00
C2       1.14720    1.00000    0.50000   1.00
C2       0.64720    1.00000    0.50000   1.00
C3a      0.66780    1.01747    0.53025   1.00
C3a      0.66780    0.98253    0.46975   1.00
H1       0.65380    1.02961    0.55129   1.00
H1       0.65380    0.97039    0.44871   1.00
C3a      0.70870    1.01764    0.53056   1.00
C3a      0.70870    0.98236    0.46944   1.00
H11      0.72250    1.02982    0.55165   1.00
H12      0.72250    0.97018    0.44835   1.00
C4       0.72940    1.00000    0.50000   1.00
C4       0.77060    1.00000    0.50000   1.00
C3a      0.79130    0.98236    0.46944   1.00
C3a      0.79130    1.01764    0.53056   1.00
H13      0.77750    0.97018    0.44835   1.00
H14      0.77750    1.02982    0.55165   1.00
C3a      0.83220    0.98253    0.46975   1.00
C3a      0.83220    1.01747    0.53025   1.00
H1       0.84620    0.97039    0.44871   1.00
H1       0.84620    1.02961    0.55129   1.00
C2       0.85280    1.00000    0.50000   1.00
C2       0.50000    0.85280    0.50000   1.00
C3a      0.46975    0.83220    0.51747   1.00
C3a      0.53025    0.83220    0.48253   1.00
H1       0.44871    0.84620    0.52961   1.00
H1       0.55129    0.84620    0.47039   1.00
C3a      0.46944    0.79130    0.51764   1.00
C3a      0.53056    0.79130    0.48236   1.00
H11      0.44835    0.77750    0.52982   1.00
H12      0.55165    0.77750    0.47018   1.00
C4       0.50000    0.77060    0.50000   1.00
C4       0.50000    0.72940    0.50000   1.00
C3a      0.53056    0.70870    0.48236   1.00
C3a      0.46944    0.70870    0.51764   1.00
H13      0.55165    0.72250    0.47018   1.00
H14      0.44835    0.72250    0.52982   1.00
C3a      0.53025    0.66780    0.48253   1.00
C3a      0.46975    0.66780    0.51747   1.00
H1       0.55129    0.65380    0.47039   1.00
H1       0.44871    0.65380    0.52961   1.00
C2       0.50000    0.64720    0.50000   1.00
C2       0.50000    1.00000    0.35280   1.00
C3a      0.51747    0.96975    0.33220   1.00
C3a      0.48253    1.03025    0.33220   1.00
H1       0.52961    0.94871    0.34620   1.00
H1       0.47039    1.05129    0.34620   1.00
C3a      0.51764    0.96944    0.29130   1.00
C3a      0.48236    1.03056    0.29130   1.00
H11      0.52982    0.94835    0.27750   1.00
H12      0.47018    1.05165    0.27750   1.00
C4       0.50000    1.00000    0.27060   1.00
C4       0.50000    1.00000    1.22940   1.00
C3a      0.48236    1.03056    1.20870   1.00
C3a      0.51764    0.96944    1.20870   1.00
H13      0.47018    1.05165    1.22250   1.00
H14      0.52982    0.94835    1.22250   1.00
C3a      0.48253    1.03025    1.16780   1.00
C3a      0.51747    0.96975    1.16780   1.00
H1       0.47039    1.05129    1.15380   1.00
H1       0.52961    0.94871    1.15380   1.00
C2       0.50000    1.00000    1.14720   1.00
C2       1.00000    0.50000    0.64720   1.00
C3a      1.01747    0.53025    0.66780   1.00
C3a      0.98253    0.46975    0.66780   1.00
H1       1.02961    0.55129    0.65380   1.00
H1       0.97039    0.44871    0.65380   1.00
C3a      1.01764    0.53056    0.70870   1.00
C3a      0.98236    0.46944    0.70870   1.00
H11      1.02982    0.55165    0.72250   1.00
H12      0.97018    0.44835    0.72250   1.00
C4       1.00000    0.50000    0.72940   1.00
C4       1.00000    0.50000    0.77060   1.00
C3a      0.98236    0.46944    0.79130   1.00
C3a      1.01764    0.53056    0.79130   1.00
H13      0.97018    0.44835    0.77750   1.00
H14      1.02982    0.55165    0.77750   1.00
C3a      0.98253    0.46975    0.83220   1.00
C3a      1.01747    0.53025    0.83220   1.00
H1       0.97039    0.44871    0.84620   1.00
H1       1.02961    0.55129    0.84620   1.00
C2       1.00000    0.50000    0.85280   1.00
C2       1.00000    0.64720    0.50000   1.00
C3a      1.03025    0.66780    0.51747   1.00
C3a      0.96975    0.66780    0.48253   1.00
H1       1.05129    0.65380    0.52961   1.00
H1       0.94871    0.65380    0.47039   1.00
C3a      1.03056    0.70870    0.51764   1.00
C3a      0.96944    0.70870    0.48236   1.00
H11      1.05165    0.72250    0.52982   1.00
H12      0.94835    0.72250    0.47018   1.00
C4       1.00000    0.72940    0.50000   1.00
C4       1.00000    0.77060    0.50000   1.00
C3a      0.96944    0.79130    0.48236   1.00
C3a      1.03056    0.79130    0.51764   1.00
H13      0.94835    0.77750    0.47018   1.00
H14      1.05165    0.77750    0.52982   1.00
C3a      0.96975    0.83220    0.48253   1.00
C3a      1.03025    0.83220    0.51747   1.00
H1       0.94871    0.84620    0.47039   1.00
H1       1.05129    0.84620    0.52961   1.00
C2       1.00000    0.85280    0.50000   1.00
C2       0.85280    0.50000    0.50000   1.00
C3a      0.83220    0.51747    0.46975   1.00
C3a      0.83220    0.48253    0.53025   1.00
H1       0.84620    0.52961    0.44871   1.00
H1       0.84620    0.47039    0.55129   1.00
C3a      0.79130    0.51764    0.46944   1.00
C3a      0.79130    0.48236    0.53056   1.00
H11      0.77750    0.52982    0.44835   1.00
H12      0.77750    0.47018    0.55165   1.00
C4       0.77060    0.50000    0.50000   1.00
C4       0.72940    0.50000    0.50000   1.00
C3a      0.70870    0.48236    0.53056   1.00
C3a      0.70870    0.51764    0.46944   1.00
H13      0.72250    0.47018    0.55165   1.00
H14      0.72250    0.52982    0.44835   1.00
C3a      0.66780    0.48253    0.53025   1.00
C3a      0.66780    0.51747    0.46975   1.00
H1       0.65380    0.47039    0.55129   1.00
H1       0.65380    0.52961    0.44871   1.00
C2       0.64720    0.50000    0.50000   1.00
C2       1.14720    0.50000    0.50000   1.00
C3a      1.16780    0.51747    0.53025   1.00
C3a      1.16780    0.48253    0.46975   1.00
H1       1.15380    0.52961    0.55129   1.00
H1       1.15380    0.47039    0.44871   1.00
C3a      1.20870    0.51764    0.53056   1.00
C3a      1.20870    0.48236    0.46944   1.00
H11      1.22250    0.52982    0.55165   1.00
H12      1.22250    0.47018    0.44835   1.00
C4       1.22940    0.50000    0.50000   1.00
C4       0.27060    0.50000    0.50000   1.00
C3a      0.29130    0.48236    0.46944   1.00
C3a      0.29130    0.51764    0.53056   1.00
H13      0.27750    0.47018    0.44835   1.00
H14      0.27750    0.52982    0.55165   1.00
C3a      0.33220    0.48253    0.46975   1.00
C3a      0.33220    0.51747    0.53025   1.00
H1       0.34620    0.47039    0.44871   1.00
H1       0.34620    0.52961    0.55129   1.00
C2       0.35280    0.50000    0.50000   1.00
C2       1.00000    0.35280    0.50000   1.00
C3a      0.96975    0.33220    0.51747   1.00
C3a      1.03025    0.33220    0.48253   1.00
H1       0.94871    0.34620    0.52961   1.00
H1       1.05129    0.34620    0.47039   1.00
C3a      0.96944    0.29130    0.51764   1.00
C3a      1.03056    0.29130    0.48236   1.00
H11      0.94835    0.27750    0.52982   1.00
H12      1.05165    0.27750    0.47018   1.00
C4       1.00000    0.27060    0.50000   1.00
C4       1.00000    1.22940    0.50000   1.00
C3a      1.03056    1.20870    0.48236   1.00
C3a      0.96944    1.20870    0.51764   1.00
H13      1.05165    1.22250    0.47018   1.00
H14      0.94835    1.22250    0.52982   1.00
C3a      1.03025    1.16780    0.48253   1.00
C3a      0.96975    1.16780    0.51747   1.00
H1       1.05129    1.15380    0.47039   1.00
H1       0.94871    1.15380    0.52961   1.00
C2       1.00000    1.14720    0.50000   1.00
C2       1.00000    0.50000    0.35280   1.00
C3a      1.01747    0.46975    0.33220   1.00
C3a      0.98253    0.53025    0.33220   1.00
H1       1.02961    0.44871    0.34620   1.00
H1       0.97039    0.55129    0.34620   1.00
C3a      1.01764    0.46944    0.29130   1.00
C3a      0.98236    0.53056    0.29130   1.00
H11      1.02982    0.44835    0.27750   1.00
H12      0.97018    0.55165    0.27750   1.00
C4       1.00000    0.50000    0.27060   1.00
C4       1.00000    0.50000    1.22940   1.00
C3a      0.98236    0.53056    1.20870   1.00
C3a      1.01764    0.46944    1.20870   1.00
H13      0.97018    0.55165    1.22250   1.00
H14      1.02982    0.44835    1.22250   1.00
C3a      0.98253    0.53025    1.16780   1.00
C3a      1.01747    0.46975    1.16780   1.00
H1       0.97039    0.55129    1.15380   1.00
H1       1.02961    0.44871    1.15380   1.00
C2       1.00000    0.50000    1.14720   1.00
