data_IRMOF10_SG202_interpen_Ligand4lp_label_d.

_audit_creation_method             'generated by an auxiliary program of Tobunporous'

_symmetry_space_group_name_H-M     'P 1'
_symmetry_Int_Tables_number        1
_symmetry_cell_setting             triclinic

_cell_length_a                    34.2800
_cell_length_b                    34.2800
_cell_length_c                    34.2800
_cell_angle_alpha                 90.0000
_cell_angle_beta                  90.0000
_cell_angle_gamma                 90.0000

loop_
_atom_site_label
_atom_site_fract_x
_atom_site_fract_y
_atom_site_fract_z
_atom_site_occupancy
O1       0.75000    0.75000    0.75000   1.00
Zn1      0.71720    0.78280    0.78280   1.00
Zn1      0.78280    0.71720    0.78280   1.00
Zn1      0.78280    0.78280    0.71720   1.00
Zn1      0.71720    0.71720    0.71720   1.00
O2       0.72650    0.77350    0.83820   1.00
O2       0.72650    0.83820    0.77350   1.00
O2       0.66180    0.77350    0.77350   1.00
O2       0.77350    0.72650    0.83820   1.00
O2       0.83820    0.72650    0.77350   1.00
O2       0.77350    0.66180    0.77350   1.00
O2       0.77350    0.83820    0.72650   1.00
O2       0.83820    0.77350    0.72650   1.00
O2       0.77350    0.77350    0.66180   1.00
O2       0.66180    0.72650    0.72650   1.00
O2       0.72650    0.66180    0.72650   1.00
O2       0.72650    0.72650    0.66180   1.00
C1       0.75000    0.75000    0.85520   1.00
C1       0.75000    0.85520    0.75000   1.00
C1       0.64480    0.75000    0.75000   1.00
C1       0.85520    0.75000    0.75000   1.00
C1       0.75000    0.64480    0.75000   1.00
C1       0.75000    0.75000    0.64480   1.00
O1       0.25000    0.25000    0.75000   1.00
Zn1      0.21720    0.28280    0.78280   1.00
Zn1      0.28280    0.21720    0.78280   1.00
Zn1      0.28280    0.28280    0.71720   1.00
Zn1      0.21720    0.21720    0.71720   1.00
O2       0.22650    0.27350    0.83820   1.00
O2       0.22650    0.33820    0.77350   1.00
O2       0.16180    0.27350    0.77350   1.00
O2       0.27350    0.22650    0.83820   1.00
O2       0.33820    0.22650    0.77350   1.00
O2       0.27350    0.16180    0.77350   1.00
O2       0.27350    0.33820    0.72650   1.00
O2       0.33820    0.27350    0.72650   1.00
O2       0.27350    0.27350    0.66180   1.00
O2       0.16180    0.22650    0.72650   1.00
O2       0.22650    0.16180    0.72650   1.00
O2       0.22650    0.22650    0.66180   1.00
C1       0.25000    0.25000    0.85520   1.00
C1       0.25000    0.35520    0.75000   1.00
C1       0.14480    0.25000    0.75000   1.00
C1       0.35520    0.25000    0.75000   1.00
C1       0.25000    0.14480    0.75000   1.00
C1       0.25000    0.25000    0.64480   1.00
O1       0.25000    0.75000    0.25000   1.00
Zn1      0.21720    0.78280    0.28280   1.00
Zn1      0.28280    0.71720    0.28280   1.00
Zn1      0.28280    0.78280    0.21720   1.00
Zn1      0.21720    0.71720    0.21720   1.00
O2       0.22650    0.77350    0.33820   1.00
O2       0.22650    0.83820    0.27350   1.00
O2       0.16180    0.77350    0.27350   1.00
O2       0.27350    0.72650    0.33820   1.00
O2       0.33820    0.72650    0.27350   1.00
O2       0.27350    0.66180    0.27350   1.00
O2       0.27350    0.83820    0.22650   1.00
O2       0.33820    0.77350    0.22650   1.00
O2       0.27350    0.77350    0.16180   1.00
O2       0.16180    0.72650    0.22650   1.00
O2       0.22650    0.66180    0.22650   1.00
O2       0.22650    0.72650    0.16180   1.00
C1       0.25000    0.75000    0.35520   1.00
C1       0.25000    0.85520    0.25000   1.00
C1       0.14480    0.75000    0.25000   1.00
C1       0.35520    0.75000    0.25000   1.00
C1       0.25000    0.64480    0.25000   1.00
C1       0.25000    0.75000    0.14480   1.00
O1       0.75000    0.25000    0.25000   1.00
Zn1      0.71720    0.28280    0.28280   1.00
Zn1      0.78280    0.21720    0.28280   1.00
Zn1      0.78280    0.28280    0.21720   1.00
Zn1      0.71720    0.21720    0.21720   1.00
O2       0.72650    0.27350    0.33820   1.00
O2       0.72650    0.33820    0.27350   1.00
O2       0.66180    0.27350    0.27350   1.00
O2       0.77350    0.22650    0.33820   1.00
O2       0.83820    0.22650    0.27350   1.00
O2       0.77350    0.16180    0.27350   1.00
O2       0.77350    0.33820    0.22650   1.00
O2       0.83820    0.27350    0.22650   1.00
O2       0.77350    0.27350    0.16180   1.00
O2       0.66180    0.22650    0.22650   1.00
O2       0.72650    0.16180    0.22650   1.00
O2       0.72650    0.22650    0.16180   1.00
C1       0.75000    0.25000    0.35520   1.00
C1       0.75000    0.35520    0.25000   1.00
C1       0.64480    0.25000    0.25000   1.00
C1       0.85520    0.25000    0.25000   1.00
C1       0.75000    0.14480    0.25000   1.00
C1       0.75000    0.25000    0.14480   1.00
O1       0.25000    0.25000    0.25000   1.00
Zn1      0.28280    0.21720    0.21720   1.00
Zn1      0.21720    0.28280    0.21720   1.00
Zn1      0.21720    0.21720    0.28280   1.00
Zn1      0.28280    0.28280    0.28280   1.00
O2       0.27350    0.22650    0.16180   1.00
O2       0.27350    0.16180    0.22650   1.00
O2       0.33820    0.22650    0.22650   1.00
O2       0.22650    0.27350    0.16180   1.00
O2       0.16180    0.27350    0.22650   1.00
O2       0.22650    0.33820    0.22650   1.00
O2       0.22650    0.16180    0.27350   1.00
O2       0.16180    0.22650    0.27350   1.00
O2       0.22650    0.22650    0.33820   1.00
O2       0.33820    0.27350    0.27350   1.00
O2       0.27350    0.33820    0.27350   1.00
O2       0.27350    0.27350    0.33820   1.00
C1       0.25000    0.25000    0.14480   1.00
C1       0.25000    0.14480    0.25000   1.00
C1       0.35520    0.25000    0.25000   1.00
C1       0.14480    0.25000    0.25000   1.00
C1       0.25000    0.35520    0.25000   1.00
C1       0.25000    0.25000    0.35520   1.00
O1       0.75000    0.75000    0.25000   1.00
Zn1      0.78280    0.71720    0.21720   1.00
Zn1      0.71720    0.78280    0.21720   1.00
Zn1      0.71720    0.71720    0.28280   1.00
Zn1      0.78280    0.78280    0.28280   1.00
O2       0.77350    0.72650    0.16180   1.00
O2       0.77350    0.66180    0.22650   1.00
O2       0.83820    0.72650    0.22650   1.00
O2       0.72650    0.77350    0.16180   1.00
O2       0.66180    0.77350    0.22650   1.00
O2       0.72650    0.83820    0.22650   1.00
O2       0.72650    0.66180    0.27350   1.00
O2       0.66180    0.72650    0.27350   1.00
O2       0.72650    0.72650    0.33820   1.00
O2       0.83820    0.77350    0.27350   1.00
O2       0.77350    0.83820    0.27350   1.00
O2       0.77350    0.77350    0.33820   1.00
C1       0.75000    0.75000    0.14480   1.00
C1       0.75000    0.64480    0.25000   1.00
C1       0.85520    0.75000    0.25000   1.00
C1       0.64480    0.75000    0.25000   1.00
C1       0.75000    0.85520    0.25000   1.00
C1       0.75000    0.75000    0.35520   1.00
O1       0.75000    0.25000    0.75000   1.00
Zn1      0.78280    0.21720    0.71720   1.00
Zn1      0.71720    0.28280    0.71720   1.00
Zn1      0.71720    0.21720    0.78280   1.00
Zn1      0.78280    0.28280    0.78280   1.00
O2       0.77350    0.22650    0.66180   1.00
O2       0.77350    0.16180    0.72650   1.00
O2       0.83820    0.22650    0.72650   1.00
O2       0.72650    0.27350    0.66180   1.00
O2       0.66180    0.27350    0.72650   1.00
O2       0.72650    0.33820    0.72650   1.00
O2       0.72650    0.16180    0.77350   1.00
O2       0.66180    0.22650    0.77350   1.00
O2       0.72650    0.22650    0.83820   1.00
O2       0.83820    0.27350    0.77350   1.00
O2       0.77350    0.33820    0.77350   1.00
O2       0.77350    0.27350    0.83820   1.00
C1       0.75000    0.25000    0.64480   1.00
C1       0.75000    0.14480    0.75000   1.00
C1       0.85520    0.25000    0.75000   1.00
C1       0.64480    0.25000    0.75000   1.00
C1       0.75000    0.35520    0.75000   1.00
C1       0.75000    0.25000    0.85520   1.00
O1       0.25000    0.75000    0.75000   1.00
Zn1      0.28280    0.71720    0.71720   1.00
Zn1      0.21720    0.78280    0.71720   1.00
Zn1      0.21720    0.71720    0.78280   1.00
Zn1      0.28280    0.78280    0.78280   1.00
O2       0.27350    0.72650    0.66180   1.00
O2       0.27350    0.66180    0.72650   1.00
O2       0.33820    0.72650    0.72650   1.00
O2       0.22650    0.77350    0.66180   1.00
O2       0.16180    0.77350    0.72650   1.00
O2       0.22650    0.83820    0.72650   1.00
O2       0.22650    0.66180    0.77350   1.00
O2       0.16180    0.72650    0.77350   1.00
O2       0.22650    0.72650    0.83820   1.00
O2       0.33820    0.77350    0.77350   1.00
O2       0.27350    0.83820    0.77350   1.00
O2       0.27350    0.77350    0.83820   1.00
C1       0.25000    0.75000    0.64480   1.00
C1       0.25000    0.64480    0.75000   1.00
C1       0.35520    0.75000    0.75000   1.00
C1       0.14480    0.75000    0.75000   1.00
C1       0.25000    0.85520    0.75000   1.00
C1       0.25000    0.75000    0.85520   1.00
O1       1.00000    1.00000    1.00000   1.00
Zn1      0.96720    1.03280    1.03280   1.00
Zn1      1.03280    0.96720    1.03280   1.00
Zn1      1.03280    1.03280    0.96720   1.00
Zn1      0.96720    0.96720    0.96720   1.00
O2       0.97650    1.02350    1.08820   1.00
O2       0.97650    1.08820    1.02350   1.00
O2       0.91180    1.02350    1.02350   1.00
O2       1.02350    0.97650    1.08820   1.00
O2       1.08820    0.97650    1.02350   1.00
O2       1.02350    0.91180    1.02350   1.00
O2       1.02350    1.08820    0.97650   1.00
O2       1.08820    1.02350    0.97650   1.00
O2       1.02350    1.02350    0.91180   1.00
O2       0.91180    0.97650    0.97650   1.00
O2       0.97650    0.91180    0.97650   1.00
O2       0.97650    0.97650    0.91180   1.00
C1       1.00000    1.00000    1.10520   1.00
C1       1.00000    1.10520    1.00000   1.00
C1       0.89480    1.00000    1.00000   1.00
C1       1.10520    1.00000    1.00000   1.00
C1       1.00000    0.89480    1.00000   1.00
C1       1.00000    1.00000    0.89480   1.00
O1       0.50000    0.50000    1.00000   1.00
Zn1      0.46720    0.53280    1.03280   1.00
Zn1      0.53280    0.46720    1.03280   1.00
Zn1      0.53280    0.53280    0.96720   1.00
Zn1      0.46720    0.46720    0.96720   1.00
O2       0.47650    0.52350    1.08820   1.00
O2       0.47650    0.58820    1.02350   1.00
O2       0.41180    0.52350    1.02350   1.00
O2       0.52350    0.47650    1.08820   1.00
O2       0.58820    0.47650    1.02350   1.00
O2       0.52350    0.41180    1.02350   1.00
O2       0.52350    0.58820    0.97650   1.00
O2       0.58820    0.52350    0.97650   1.00
O2       0.52350    0.52350    0.91180   1.00
O2       0.41180    0.47650    0.97650   1.00
O2       0.47650    0.41180    0.97650   1.00
O2       0.47650    0.47650    0.91180   1.00
C1       0.50000    0.50000    1.10520   1.00
C1       0.50000    0.60520    1.00000   1.00
C1       0.39480    0.50000    1.00000   1.00
C1       0.60520    0.50000    1.00000   1.00
C1       0.50000    0.39480    1.00000   1.00
C1       0.50000    0.50000    0.89480   1.00
O1       0.50000    1.00000    0.50000   1.00
Zn1      0.46720    1.03280    0.53280   1.00
Zn1      0.53280    0.96720    0.53280   1.00
Zn1      0.53280    1.03280    0.46720   1.00
Zn1      0.46720    0.96720    0.46720   1.00
O2       0.47650    1.02350    0.58820   1.00
O2       0.47650    1.08820    0.52350   1.00
O2       0.41180    1.02350    0.52350   1.00
O2       0.52350    0.97650    0.58820   1.00
O2       0.58820    0.97650    0.52350   1.00
O2       0.52350    0.91180    0.52350   1.00
O2       0.52350    1.08820    0.47650   1.00
O2       0.58820    1.02350    0.47650   1.00
O2       0.52350    1.02350    0.41180   1.00
O2       0.41180    0.97650    0.47650   1.00
O2       0.47650    0.91180    0.47650   1.00
O2       0.47650    0.97650    0.41180   1.00
C1       0.50000    1.00000    0.60520   1.00
C1       0.50000    1.10520    0.50000   1.00
C1       0.39480    1.00000    0.50000   1.00
C1       0.60520    1.00000    0.50000   1.00
C1       0.50000    0.89480    0.50000   1.00
C1       0.50000    1.00000    0.39480   1.00
O1       1.00000    0.50000    0.50000   1.00
Zn1      0.96720    0.53280    0.53280   1.00
Zn1      1.03280    0.46720    0.53280   1.00
Zn1      1.03280    0.53280    0.46720   1.00
Zn1      0.96720    0.46720    0.46720   1.00
O2       0.97650    0.52350    0.58820   1.00
O2       0.97650    0.58820    0.52350   1.00
O2       0.91180    0.52350    0.52350   1.00
O2       1.02350    0.47650    0.58820   1.00
O2       1.08820    0.47650    0.52350   1.00
O2       1.02350    0.41180    0.52350   1.00
O2       1.02350    0.58820    0.47650   1.00
O2       1.08820    0.52350    0.47650   1.00
O2       1.02350    0.52350    0.41180   1.00
O2       0.91180    0.47650    0.47650   1.00
O2       0.97650    0.41180    0.47650   1.00
O2       0.97650    0.47650    0.41180   1.00
C1       1.00000    0.50000    0.60520   1.00
C1       1.00000    0.60520    0.50000   1.00
C1       0.89480    0.50000    0.50000   1.00
C1       1.10520    0.50000    0.50000   1.00
C1       1.00000    0.39480    0.50000   1.00
C1       1.00000    0.50000    0.39480   1.00
O1       0.50000    0.50000    0.50000   1.00
Zn1      0.53280    0.46720    0.46720   1.00
Zn1      0.46720    0.53280    0.46720   1.00
Zn1      0.46720    0.46720    0.53280   1.00
Zn1      0.53280    0.53280    0.53280   1.00
O2       0.52350    0.47650    0.41180   1.00
O2       0.52350    0.41180    0.47650   1.00
O2       0.58820    0.47650    0.47650   1.00
O2       0.47650    0.52350    0.41180   1.00
O2       0.41180    0.52350    0.47650   1.00
O2       0.47650    0.58820    0.47650   1.00
O2       0.47650    0.41180    0.52350   1.00
O2       0.41180    0.47650    0.52350   1.00
O2       0.47650    0.47650    0.58820   1.00
O2       0.58820    0.52350    0.52350   1.00
O2       0.52350    0.58820    0.52350   1.00
O2       0.52350    0.52350    0.58820   1.00
C1       0.50000    0.50000    0.39480   1.00
C1       0.50000    0.39480    0.50000   1.00
C1       0.60520    0.50000    0.50000   1.00
C1       0.39480    0.50000    0.50000   1.00
C1       0.50000    0.60520    0.50000   1.00
C1       0.50000    0.50000    0.60520   1.00
O1       1.00000    1.00000    0.50000   1.00
Zn1      1.03280    0.96720    0.46720   1.00
Zn1      0.96720    1.03280    0.46720   1.00
Zn1      0.96720    0.96720    0.53280   1.00
Zn1      1.03280    1.03280    0.53280   1.00
O2       1.02350    0.97650    0.41180   1.00
O2       1.02350    0.91180    0.47650   1.00
O2       1.08820    0.97650    0.47650   1.00
O2       0.97650    1.02350    0.41180   1.00
O2       0.91180    1.02350    0.47650   1.00
O2       0.97650    1.08820    0.47650   1.00
O2       0.97650    0.91180    0.52350   1.00
O2       0.91180    0.97650    0.52350   1.00
O2       0.97650    0.97650    0.58820   1.00
O2       1.08820    1.02350    0.52350   1.00
O2       1.02350    1.08820    0.52350   1.00
O2       1.02350    1.02350    0.58820   1.00
C1       1.00000    1.00000    0.39480   1.00
C1       1.00000    0.89480    0.50000   1.00
C1       1.10520    1.00000    0.50000   1.00
C1       0.89480    1.00000    0.50000   1.00
C1       1.00000    1.10520    0.50000   1.00
C1       1.00000    1.00000    0.60520   1.00
O1       1.00000    0.50000    1.00000   1.00
Zn1      1.03280    0.46720    0.96720   1.00
Zn1      0.96720    0.53280    0.96720   1.00
Zn1      0.96720    0.46720    1.03280   1.00
Zn1      1.03280    0.53280    1.03280   1.00
O2       1.02350    0.47650    0.91180   1.00
O2       1.02350    0.41180    0.97650   1.00
O2       1.08820    0.47650    0.97650   1.00
O2       0.97650    0.52350    0.91180   1.00
O2       0.91180    0.52350    0.97650   1.00
O2       0.97650    0.58820    0.97650   1.00
O2       0.97650    0.41180    1.02350   1.00
O2       0.91180    0.47650    1.02350   1.00
O2       0.97650    0.47650    1.08820   1.00
O2       1.08820    0.52350    1.02350   1.00
O2       1.02350    0.58820    1.02350   1.00
O2       1.02350    0.52350    1.08820   1.00
C1       1.00000    0.50000    0.89480   1.00
C1       1.00000    0.39480    1.00000   1.00
C1       1.10520    0.50000    1.00000   1.00
C1       0.89480    0.50000    1.00000   1.00
C1       1.00000    0.60520    1.00000   1.00
C1       1.00000    0.50000    1.10520   1.00
O1       0.50000    1.00000    1.00000   1.00
Zn1      0.53280    0.96720    0.96720   1.00
Zn1      0.46720    1.03280    0.96720   1.00
Zn1      0.46720    0.96720    1.03280   1.00
Zn1      0.53280    1.03280    1.03280   1.00
O2       0.52350    0.97650    0.91180   1.00
O2       0.52350    0.91180    0.97650   1.00
O2       0.58820    0.97650    0.97650   1.00
O2       0.47650    1.02350    0.91180   1.00
O2       0.41180    1.02350    0.97650   1.00
O2       0.47650    1.08820    0.97650   1.00
O2       0.47650    0.91180    1.02350   1.00
O2       0.41180    0.97650    1.02350   1.00
O2       0.47650    0.97650    1.08820   1.00
O2       0.58820    1.02350    1.02350   1.00
O2       0.52350    1.08820    1.02350   1.00
O2       0.52350    1.02350    1.08820   1.00
C1       0.50000    1.00000    0.89480   1.00
C1       0.50000    0.89480    1.00000   1.00
C1       0.60520    1.00000    1.00000   1.00
C1       0.39480    1.00000    1.00000   1.00
C1       0.50000    1.10520    1.00000   1.00
C1       0.50000    1.00000    1.10520   1.00
C4       0.74990    0.74521    0.98025   1.00
C4       0.74863    0.74432    1.02191   1.00
C3       0.78547    0.74199    0.95897   1.00
C3       0.78218    0.73605    1.04504   1.00
C3       0.71452    0.74953    0.95854   1.00
C3       0.71267    0.75184    1.04170   1.00
C2       0.75230    0.74509    0.89595   1.00
C2       0.74654    0.74438    1.10622   1.00
C3       0.78670    0.74172    0.91811   1.00
C3       0.78129    0.73626    1.08591   1.00
C3       0.71700    0.74891    0.91696   1.00
C3       0.71305    0.75199    1.08336   1.00
H1       0.81188    0.74010    0.97237   1.00
H1       0.80844    0.72919    1.03306   1.00
C5       0.67799    0.75454    0.97835   1.00
C5       0.67757    0.75873    1.01998   1.00
H1       0.81328    0.73915    0.90451   1.00
H1       0.80653    0.73022    1.10091   1.00
H1       0.69245    0.75163    0.90052   1.00
H1       0.68812    0.75749    1.09848   1.00
C6       0.64039    0.75490    0.95515   1.00
C6       0.64071    0.77075    1.04119   1.00
H2       0.64135    0.73167    0.93345   1.00
H2       0.64800    0.79260    1.06310   1.00
H2       0.61560    0.74609    0.97286   1.00
H2       0.62106    0.78694    1.02228   1.00
C6       0.63136    0.79548    0.93606   1.00
C6       0.61808    0.73542    1.05942   1.00
H2       0.65794    0.80725    0.92292   1.00
H2       0.63870    0.71581    1.07383   1.00
C6       0.59829    0.79713    0.90459   1.00
C6       0.58465    0.74483    1.08911   1.00
H2       0.62389    0.81577    0.95949   1.00
H2       0.60568    0.71844    1.03546   1.00
C6       0.60946    0.77393    0.86735   1.00
C6       0.60076    0.76349    1.12708   1.00
C6       0.55910    0.78142    0.92074   1.00
C6       0.55354    0.77222    1.07107   1.00
C6       0.59208    0.84034    0.89245   1.00
C6       0.56419    0.70604    1.10054   1.00
H2       0.63735    0.78391    0.85558   1.00
H2       0.62328    0.74514    1.14020   1.00
H2       0.61194    0.74282    0.87330   1.00
H2       0.61347    0.79208    1.12154   1.00
H2       0.58747    0.77748    0.84459   1.00
H2       0.57765    0.76743    1.14863   1.00
H2       0.53563    0.78527    0.89955   1.00
H2       0.52901    0.77634    1.09098   1.00
H2       0.56109    0.75035    0.92725   1.00
H2       0.56580    0.80092    1.06494   1.00
H2       0.55096    0.79672    0.94745   1.00
H2       0.54230    0.76014    1.04385   1.00
H2       0.61886    0.85275    0.88042   1.00
H2       0.58485    0.68575    1.11383   1.00
H2       0.56937    0.84298    0.87025   1.00
H2       0.54072    0.71107    1.12149   1.00
H2       0.58334    0.85811    0.91739   1.00
H2       0.55149    0.69183    1.07502   1.00
C4       0.74521    0.98025    0.74990   1.00
C4       0.74432    1.02191    0.74863   1.00
C3       0.74199    0.95897    0.78547   1.00
C3       0.73605    1.04504    0.78218   1.00
C3       0.74953    0.95854    0.71452   1.00
C3       0.75184    1.04170    0.71267   1.00
C2       0.74509    0.89595    0.75230   1.00
C2       0.74438    1.10622    0.74654   1.00
C3       0.74172    0.91811    0.78670   1.00
C3       0.73626    1.08591    0.78129   1.00
C3       0.74891    0.91696    0.71700   1.00
C3       0.75199    1.08336    0.71305   1.00
H1       0.74010    0.97237    0.81188   1.00
H1       0.72919    1.03306    0.80844   1.00
C5       0.75454    0.97835    0.67799   1.00
C5       0.75873    1.01998    0.67757   1.00
H1       0.73915    0.90451    0.81328   1.00
H1       0.73022    1.10091    0.80653   1.00
H1       0.75163    0.90052    0.69245   1.00
H1       0.75749    1.09848    0.68812   1.00
C6       0.75490    0.95515    0.64039   1.00
C6       0.77075    1.04119    0.64071   1.00
H2       0.73167    0.93345    0.64135   1.00
H2       0.79260    1.06310    0.64800   1.00
H2       0.74609    0.97286    0.61560   1.00
H2       0.78694    1.02228    0.62106   1.00
C6       0.79548    0.93606    0.63136   1.00
C6       0.73542    1.05942    0.61808   1.00
H2       0.80725    0.92292    0.65794   1.00
H2       0.71581    1.07383    0.63870   1.00
C6       0.79713    0.90459    0.59829   1.00
C6       0.74483    1.08911    0.58465   1.00
H2       0.81577    0.95949    0.62389   1.00
H2       0.71844    1.03546    0.60568   1.00
C6       0.77393    0.86735    0.60946   1.00
C6       0.76349    1.12708    0.60076   1.00
C6       0.78142    0.92074    0.55910   1.00
C6       0.77222    1.07107    0.55354   1.00
C6       0.84034    0.89245    0.59208   1.00
C6       0.70604    1.10054    0.56419   1.00
H2       0.78391    0.85558    0.63735   1.00
H2       0.74514    1.14020    0.62328   1.00
H2       0.74282    0.87330    0.61194   1.00
H2       0.79208    1.12154    0.61347   1.00
H2       0.77748    0.84459    0.58747   1.00
H2       0.76743    1.14863    0.57765   1.00
H2       0.78527    0.89955    0.53563   1.00
H2       0.77634    1.09098    0.52901   1.00
H2       0.75035    0.92725    0.56109   1.00
H2       0.80092    1.06494    0.56580   1.00
H2       0.79672    0.94745    0.55096   1.00
H2       0.76014    1.04385    0.54230   1.00
H2       0.85275    0.88042    0.61886   1.00
H2       0.68575    1.11383    0.58485   1.00
H2       0.84298    0.87025    0.56937   1.00
H2       0.71107    1.12149    0.54072   1.00
H2       0.85811    0.91739    0.58334   1.00
H2       0.69183    1.07502    0.55149   1.00
C4       0.51975    0.74990    0.75479   1.00
C4       0.47809    0.74863    0.75568   1.00
C3       0.54103    0.78547    0.75801   1.00
C3       0.45496    0.78218    0.76395   1.00
C3       0.54146    0.71452    0.75047   1.00
C3       0.45830    0.71267    0.74816   1.00
C2       0.60405    0.75230    0.75491   1.00
C2       0.39378    0.74654    0.75562   1.00
C3       0.58189    0.78670    0.75828   1.00
C3       0.41409    0.78129    0.76374   1.00
C3       0.58304    0.71700    0.75109   1.00
C3       0.41664    0.71305    0.74801   1.00
H1       0.52763    0.81188    0.75990   1.00
H1       0.46694    0.80844    0.77081   1.00
C5       0.52165    0.67799    0.74546   1.00
C5       0.48002    0.67757    0.74127   1.00
H1       0.59549    0.81328    0.76085   1.00
H1       0.39909    0.80653    0.76978   1.00
H1       0.59948    0.69245    0.74837   1.00
H1       0.40152    0.68812    0.74251   1.00
C6       0.54485    0.64039    0.74510   1.00
C6       0.45881    0.64071    0.72925   1.00
H2       0.56655    0.64135    0.76833   1.00
H2       0.43690    0.64800    0.70740   1.00
H2       0.52714    0.61560    0.75391   1.00
H2       0.47772    0.62106    0.71306   1.00
C6       0.56394    0.63136    0.70452   1.00
C6       0.44058    0.61808    0.76458   1.00
H2       0.57708    0.65794    0.69275   1.00
H2       0.42617    0.63870    0.78419   1.00
C6       0.59541    0.59829    0.70287   1.00
C6       0.41089    0.58465    0.75517   1.00
H2       0.54051    0.62389    0.68423   1.00
H2       0.46454    0.60568    0.78156   1.00
C6       0.63265    0.60946    0.72607   1.00
C6       0.37292    0.60076    0.73651   1.00
C6       0.57926    0.55910    0.71858   1.00
C6       0.42893    0.55354    0.72778   1.00
C6       0.60755    0.59208    0.65966   1.00
C6       0.39946    0.56419    0.79396   1.00
H2       0.64442    0.63735    0.71609   1.00
H2       0.35980    0.62328    0.75486   1.00
H2       0.62670    0.61194    0.75718   1.00
H2       0.37846    0.61347    0.70792   1.00
H2       0.65541    0.58747    0.72252   1.00
H2       0.35137    0.57765    0.73257   1.00
H2       0.60045    0.53563    0.71473   1.00
H2       0.40902    0.52901    0.72366   1.00
H2       0.57275    0.56109    0.74965   1.00
H2       0.43506    0.56580    0.69908   1.00
H2       0.55255    0.55096    0.70328   1.00
H2       0.45615    0.54230    0.73986   1.00
H2       0.61958    0.61886    0.64725   1.00
H2       0.38617    0.58485    0.81425   1.00
H2       0.62975    0.56937    0.65702   1.00
H2       0.37851    0.54072    0.78893   1.00
H2       0.58261    0.58334    0.64189   1.00
H2       0.42498    0.55149    0.80817   1.00
C4       0.98025    0.74990    0.74521   1.00
C4       1.02191    0.74863    0.74432   1.00
C3       0.95897    0.78547    0.74199   1.00
C3       1.04504    0.78218    0.73605   1.00
C3       0.95854    0.71452    0.74953   1.00
C3       1.04170    0.71267    0.75184   1.00
C2       0.89595    0.75230    0.74509   1.00
C2       1.10622    0.74654    0.74438   1.00
C3       0.91811    0.78670    0.74172   1.00
C3       1.08591    0.78129    0.73626   1.00
C3       0.91696    0.71700    0.74891   1.00
C3       1.08336    0.71305    0.75199   1.00
H1       0.97237    0.81188    0.74010   1.00
H1       1.03306    0.80844    0.72919   1.00
C5       0.97835    0.67799    0.75454   1.00
C5       1.01998    0.67757    0.75873   1.00
H1       0.90451    0.81328    0.73915   1.00
H1       1.10091    0.80653    0.73022   1.00
H1       0.90052    0.69245    0.75163   1.00
H1       1.09848    0.68812    0.75749   1.00
C6       0.95515    0.64039    0.75490   1.00
C6       1.04119    0.64071    0.77075   1.00
H2       0.93345    0.64135    0.73167   1.00
H2       1.06310    0.64800    0.79260   1.00
H2       0.97286    0.61560    0.74609   1.00
H2       1.02228    0.62106    0.78694   1.00
C6       0.93606    0.63136    0.79548   1.00
C6       1.05942    0.61808    0.73542   1.00
H2       0.92292    0.65794    0.80725   1.00
H2       1.07383    0.63870    0.71581   1.00
C6       0.90459    0.59829    0.79713   1.00
C6       1.08911    0.58465    0.74483   1.00
H2       0.95949    0.62389    0.81577   1.00
H2       1.03546    0.60568    0.71844   1.00
C6       0.86735    0.60946    0.77393   1.00
C6       1.12708    0.60076    0.76349   1.00
C6       0.92074    0.55910    0.78142   1.00
C6       1.07107    0.55354    0.77222   1.00
C6       0.89245    0.59208    0.84034   1.00
C6       1.10054    0.56419    0.70604   1.00
H2       0.85558    0.63735    0.78391   1.00
H2       1.14020    0.62328    0.74514   1.00
H2       0.87330    0.61194    0.74282   1.00
H2       1.12154    0.61347    0.79208   1.00
H2       0.84459    0.58747    0.77748   1.00
H2       1.14863    0.57765    0.76743   1.00
H2       0.89955    0.53563    0.78527   1.00
H2       1.09098    0.52901    0.77634   1.00
H2       0.92725    0.56109    0.75035   1.00
H2       1.06494    0.56580    0.80092   1.00
H2       0.94745    0.55096    0.79672   1.00
H2       1.04385    0.54230    0.76014   1.00
H2       0.88042    0.61886    0.85275   1.00
H2       1.11383    0.58485    0.68575   1.00
H2       0.87025    0.56937    0.84298   1.00
H2       1.12149    0.54072    0.71107   1.00
H2       0.91739    0.58334    0.85811   1.00
H2       1.07502    0.55149    0.69183   1.00
C4       0.75479    0.51975    0.74990   1.00
C4       0.75568    0.47809    0.74863   1.00
C3       0.75801    0.54103    0.78547   1.00
C3       0.76395    0.45496    0.78218   1.00
C3       0.75047    0.54146    0.71452   1.00
C3       0.74816    0.45830    0.71267   1.00
C2       0.75491    0.60405    0.75230   1.00
C2       0.75562    0.39378    0.74654   1.00
C3       0.75828    0.58189    0.78670   1.00
C3       0.76374    0.41409    0.78129   1.00
C3       0.75109    0.58304    0.71700   1.00
C3       0.74801    0.41664    0.71305   1.00
H1       0.75990    0.52763    0.81188   1.00
H1       0.77081    0.46694    0.80844   1.00
C5       0.74546    0.52165    0.67799   1.00
C5       0.74127    0.48002    0.67757   1.00
H1       0.76085    0.59549    0.81328   1.00
H1       0.76978    0.39909    0.80653   1.00
H1       0.74837    0.59948    0.69245   1.00
H1       0.74251    0.40152    0.68812   1.00
C6       0.74510    0.54485    0.64039   1.00
C6       0.72925    0.45881    0.64071   1.00
H2       0.76833    0.56655    0.64135   1.00
H2       0.70740    0.43690    0.64800   1.00
H2       0.75391    0.52714    0.61560   1.00
H2       0.71306    0.47772    0.62106   1.00
C6       0.70452    0.56394    0.63136   1.00
C6       0.76458    0.44058    0.61808   1.00
H2       0.69275    0.57708    0.65794   1.00
H2       0.78419    0.42617    0.63870   1.00
C6       0.70287    0.59541    0.59829   1.00
C6       0.75517    0.41089    0.58465   1.00
H2       0.68423    0.54051    0.62389   1.00
H2       0.78156    0.46454    0.60568   1.00
C6       0.72607    0.63265    0.60946   1.00
C6       0.73651    0.37292    0.60076   1.00
C6       0.71858    0.57926    0.55910   1.00
C6       0.72778    0.42893    0.55354   1.00
C6       0.65966    0.60755    0.59208   1.00
C6       0.79396    0.39946    0.56419   1.00
H2       0.71609    0.64442    0.63735   1.00
H2       0.75486    0.35980    0.62328   1.00
H2       0.75718    0.62670    0.61194   1.00
H2       0.70792    0.37846    0.61347   1.00
H2       0.72252    0.65541    0.58747   1.00
H2       0.73257    0.35137    0.57765   1.00
H2       0.71473    0.60045    0.53563   1.00
H2       0.72366    0.40902    0.52901   1.00
H2       0.74965    0.57275    0.56109   1.00
H2       0.69908    0.43506    0.56580   1.00
H2       0.70328    0.55255    0.55096   1.00
H2       0.73986    0.45615    0.54230   1.00
H2       0.64725    0.61958    0.61886   1.00
H2       0.81425    0.38617    0.58485   1.00
H2       0.65702    0.62975    0.56937   1.00
H2       0.78893    0.37851    0.54072   1.00
H2       0.64189    0.58261    0.58334   1.00
H2       0.80817    0.42498    0.55149   1.00
C4       0.74990    0.75479    0.51975   1.00
C4       0.74863    0.75568    0.47809   1.00
C3       0.78547    0.75801    0.54103   1.00
C3       0.78218    0.76395    0.45496   1.00
C3       0.71452    0.75047    0.54146   1.00
C3       0.71267    0.74816    0.45830   1.00
C2       0.75230    0.75491    0.60405   1.00
C2       0.74654    0.75562    0.39378   1.00
C3       0.78670    0.75828    0.58189   1.00
C3       0.78129    0.76374    0.41409   1.00
C3       0.71700    0.75109    0.58304   1.00
C3       0.71305    0.74801    0.41664   1.00
H1       0.81188    0.75990    0.52763   1.00
H1       0.80844    0.77081    0.46694   1.00
C5       0.67799    0.74546    0.52165   1.00
C5       0.67757    0.74127    0.48002   1.00
H1       0.81328    0.76085    0.59549   1.00
H1       0.80653    0.76978    0.39909   1.00
H1       0.69245    0.74837    0.59948   1.00
H1       0.68812    0.74251    0.40152   1.00
C6       0.64039    0.74510    0.54485   1.00
C6       0.64071    0.72925    0.45881   1.00
H2       0.64135    0.76833    0.56655   1.00
H2       0.64800    0.70740    0.43690   1.00
H2       0.61560    0.75391    0.52714   1.00
H2       0.62106    0.71306    0.47772   1.00
C6       0.63136    0.70452    0.56394   1.00
C6       0.61808    0.76458    0.44058   1.00
H2       0.65794    0.69275    0.57708   1.00
H2       0.63870    0.78419    0.42617   1.00
C6       0.59829    0.70287    0.59541   1.00
C6       0.58465    0.75517    0.41089   1.00
H2       0.62389    0.68423    0.54051   1.00
H2       0.60568    0.78156    0.46454   1.00
C6       0.60946    0.72607    0.63265   1.00
C6       0.60076    0.73651    0.37292   1.00
C6       0.55910    0.71858    0.57926   1.00
C6       0.55354    0.72778    0.42893   1.00
C6       0.59208    0.65966    0.60755   1.00
C6       0.56419    0.79396    0.39946   1.00
H2       0.63735    0.71609    0.64442   1.00
H2       0.62328    0.75486    0.35980   1.00
H2       0.61194    0.75718    0.62670   1.00
H2       0.61347    0.70792    0.37846   1.00
H2       0.58747    0.72252    0.65541   1.00
H2       0.57765    0.73257    0.35137   1.00
H2       0.53563    0.71473    0.60045   1.00
H2       0.52901    0.72366    0.40902   1.00
H2       0.56109    0.74965    0.57275   1.00
H2       0.56580    0.69908    0.43506   1.00
H2       0.55096    0.70328    0.55255   1.00
H2       0.54230    0.73986    0.45615   1.00
H2       0.61886    0.64725    0.61958   1.00
H2       0.58485    0.81425    0.38617   1.00
H2       0.56937    0.65702    0.62975   1.00
H2       0.54072    0.78893    0.37851   1.00
H2       0.58334    0.64189    0.58261   1.00
H2       0.55149    0.80817    0.42498   1.00
C4       0.24990    0.24521    0.98025   1.00
C4       0.24863    0.24432    1.02191   1.00
C3       0.28547    0.24199    0.95897   1.00
C3       0.28218    0.23605    1.04504   1.00
C3       0.21452    0.24953    0.95854   1.00
C3       0.21267    0.25184    1.04170   1.00
C2       0.25230    0.24509    0.89595   1.00
C2       0.24654    0.24438    1.10622   1.00
C3       0.28670    0.24172    0.91811   1.00
C3       0.28129    0.23626    1.08591   1.00
C3       0.21700    0.24891    0.91696   1.00
C3       0.21305    0.25199    1.08336   1.00
H1       0.31188    0.24010    0.97237   1.00
H1       0.30844    0.22919    1.03306   1.00
C5       0.17799    0.25454    0.97835   1.00
C5       0.17757    0.25873    1.01998   1.00
H1       0.31328    0.23915    0.90451   1.00
H1       0.30653    0.23022    1.10091   1.00
H1       0.19245    0.25163    0.90052   1.00
H1       0.18812    0.25749    1.09848   1.00
C6       0.14039    0.25490    0.95515   1.00
C6       0.14071    0.27075    1.04119   1.00
H2       0.14135    0.23167    0.93345   1.00
H2       0.14800    0.29260    1.06310   1.00
H2       0.11560    0.24609    0.97286   1.00
H2       0.12106    0.28694    1.02228   1.00
C6       0.13136    0.29548    0.93606   1.00
C6       0.11808    0.23542    1.05942   1.00
H2       0.15794    0.30725    0.92292   1.00
H2       0.13870    0.21581    1.07383   1.00
C6       0.09829    0.29713    0.90459   1.00
C6       0.08465    0.24483    1.08911   1.00
H2       0.12389    0.31577    0.95949   1.00
H2       0.10568    0.21844    1.03546   1.00
C6       0.10946    0.27393    0.86735   1.00
C6       0.10076    0.26349    1.12708   1.00
C6       0.05910    0.28142    0.92074   1.00
C6       0.05354    0.27222    1.07107   1.00
C6       0.09208    0.34034    0.89245   1.00
C6       0.06419    0.20604    1.10054   1.00
H2       0.13735    0.28391    0.85558   1.00
H2       0.12328    0.24514    1.14020   1.00
H2       0.11194    0.24282    0.87330   1.00
H2       0.11347    0.29208    1.12154   1.00
H2       0.08747    0.27748    0.84459   1.00
H2       0.07765    0.26743    1.14863   1.00
H2       0.03563    0.28527    0.89955   1.00
H2       0.02901    0.27634    1.09098   1.00
H2       0.06109    0.25035    0.92725   1.00
H2       0.06580    0.30092    1.06494   1.00
H2       0.05096    0.29672    0.94745   1.00
H2       0.04230    0.26014    1.04385   1.00
H2       0.11886    0.35275    0.88042   1.00
H2       0.08485    0.18575    1.11383   1.00
H2       0.06937    0.34298    0.87025   1.00
H2       0.04072    0.21107    1.12149   1.00
H2       0.08334    0.35811    0.91739   1.00
H2       0.05149    0.19183    1.07502   1.00
C4       0.24521    0.48025    0.74990   1.00
C4       0.24432    0.52191    0.74863   1.00
C3       0.24199    0.45897    0.78547   1.00
C3       0.23605    0.54504    0.78218   1.00
C3       0.24953    0.45854    0.71452   1.00
C3       0.25184    0.54170    0.71267   1.00
C2       0.24509    0.39595    0.75230   1.00
C2       0.24438    0.60622    0.74654   1.00
C3       0.24172    0.41811    0.78670   1.00
C3       0.23626    0.58591    0.78129   1.00
C3       0.24891    0.41696    0.71700   1.00
C3       0.25199    0.58336    0.71305   1.00
H1       0.24010    0.47237    0.81188   1.00
H1       0.22919    0.53306    0.80844   1.00
C5       0.25454    0.47835    0.67799   1.00
C5       0.25873    0.51998    0.67757   1.00
H1       0.23915    0.40451    0.81328   1.00
H1       0.23022    0.60091    0.80653   1.00
H1       0.25163    0.40052    0.69245   1.00
H1       0.25749    0.59848    0.68812   1.00
C6       0.25490    0.45515    0.64039   1.00
C6       0.27075    0.54119    0.64071   1.00
H2       0.23167    0.43345    0.64135   1.00
H2       0.29260    0.56310    0.64800   1.00
H2       0.24609    0.47286    0.61560   1.00
H2       0.28694    0.52228    0.62106   1.00
C6       0.29548    0.43606    0.63136   1.00
C6       0.23542    0.55942    0.61808   1.00
H2       0.30725    0.42292    0.65794   1.00
H2       0.21581    0.57383    0.63870   1.00
C6       0.29713    0.40459    0.59829   1.00
C6       0.24483    0.58911    0.58465   1.00
H2       0.31577    0.45949    0.62389   1.00
H2       0.21844    0.53546    0.60568   1.00
C6       0.27393    0.36735    0.60946   1.00
C6       0.26349    0.62708    0.60076   1.00
C6       0.28142    0.42074    0.55910   1.00
C6       0.27222    0.57107    0.55354   1.00
C6       0.34034    0.39245    0.59208   1.00
C6       0.20604    0.60054    0.56419   1.00
H2       0.28391    0.35558    0.63735   1.00
H2       0.24514    0.64020    0.62328   1.00
H2       0.24282    0.37330    0.61194   1.00
H2       0.29208    0.62154    0.61347   1.00
H2       0.27748    0.34459    0.58747   1.00
H2       0.26743    0.64863    0.57765   1.00
H2       0.28527    0.39955    0.53563   1.00
H2       0.27634    0.59098    0.52901   1.00
H2       0.25035    0.42725    0.56109   1.00
H2       0.30092    0.56494    0.56580   1.00
H2       0.29672    0.44745    0.55096   1.00
H2       0.26014    0.54385    0.54230   1.00
H2       0.35275    0.38042    0.61886   1.00
H2       0.18575    0.61383    0.58485   1.00
H2       0.34298    0.37025    0.56937   1.00
H2       0.21107    0.62149    0.54072   1.00
H2       0.35811    0.41739    0.58334   1.00
H2       0.19183    0.57502    0.55149   1.00
C4       0.01975    0.24990    0.75479   1.00
C4       -0.02191   0.24863    0.75568   1.00
C3       0.04103    0.28547    0.75801   1.00
C3       -0.04504   0.28218    0.76395   1.00
C3       0.04146    0.21452    0.75047   1.00
C3       -0.04170   0.21267    0.74816   1.00
C2       0.10405    0.25230    0.75491   1.00
C2       -0.10622   0.24654    0.75562   1.00
C3       0.08189    0.28670    0.75828   1.00
C3       -0.08591   0.28129    0.76374   1.00
C3       0.08304    0.21700    0.75109   1.00
C3       -0.08336   0.21305    0.74801   1.00
H1       0.02763    0.31188    0.75990   1.00
H1       -0.03306   0.30844    0.77081   1.00
C5       0.02165    0.17799    0.74546   1.00
C5       -0.01998   0.17757    0.74127   1.00
H1       0.09549    0.31328    0.76085   1.00
H1       -0.10091   0.30653    0.76978   1.00
H1       0.09948    0.19245    0.74837   1.00
H1       -0.09848   0.18812    0.74251   1.00
C6       0.04485    0.14039    0.74510   1.00
C6       -0.04119   0.14071    0.72925   1.00
H2       0.06655    0.14135    0.76833   1.00
H2       -0.06310   0.14800    0.70740   1.00
H2       0.02714    0.11560    0.75391   1.00
H2       -0.02228   0.12106    0.71306   1.00
C6       0.06394    0.13136    0.70452   1.00
C6       -0.05942   0.11808    0.76458   1.00
H2       0.07708    0.15794    0.69275   1.00
H2       -0.07383   0.13870    0.78419   1.00
C6       0.09541    0.09829    0.70287   1.00
C6       -0.08911   0.08465    0.75517   1.00
H2       0.04051    0.12389    0.68423   1.00
H2       -0.03546   0.10568    0.78156   1.00
C6       0.13265    0.10946    0.72607   1.00
C6       -0.12708   0.10076    0.73651   1.00
C6       0.07926    0.05910    0.71858   1.00
C6       -0.07107   0.05354    0.72778   1.00
C6       0.10755    0.09208    0.65966   1.00
C6       -0.10054   0.06419    0.79396   1.00
H2       0.14442    0.13735    0.71609   1.00
H2       -0.14020   0.12328    0.75486   1.00
H2       0.12670    0.11194    0.75718   1.00
H2       -0.12154   0.11347    0.70792   1.00
H2       0.15541    0.08747    0.72252   1.00
H2       -0.14863   0.07765    0.73257   1.00
H2       0.10045    0.03563    0.71473   1.00
H2       -0.09098   0.02901    0.72366   1.00
H2       0.07275    0.06109    0.74965   1.00
H2       -0.06494   0.06580    0.69908   1.00
H2       0.05255    0.05096    0.70328   1.00
H2       -0.04385   0.04230    0.73986   1.00
H2       0.11958    0.11886    0.64725   1.00
H2       -0.11383   0.08485    0.81425   1.00
H2       0.12975    0.06937    0.65702   1.00
H2       -0.12149   0.04072    0.78893   1.00
H2       0.08261    0.08334    0.64189   1.00
H2       -0.07502   0.05149    0.80817   1.00
C4       0.48025    0.24990    0.74521   1.00
C4       0.52191    0.24863    0.74432   1.00
C3       0.45897    0.28547    0.74199   1.00
C3       0.54504    0.28218    0.73605   1.00
C3       0.45854    0.21452    0.74953   1.00
C3       0.54170    0.21267    0.75184   1.00
C2       0.39595    0.25230    0.74509   1.00
C2       0.60622    0.24654    0.74438   1.00
C3       0.41811    0.28670    0.74172   1.00
C3       0.58591    0.28129    0.73626   1.00
C3       0.41696    0.21700    0.74891   1.00
C3       0.58336    0.21305    0.75199   1.00
H1       0.47237    0.31188    0.74010   1.00
H1       0.53306    0.30844    0.72919   1.00
C5       0.47835    0.17799    0.75454   1.00
C5       0.51998    0.17757    0.75873   1.00
H1       0.40451    0.31328    0.73915   1.00
H1       0.60091    0.30653    0.73022   1.00
H1       0.40052    0.19245    0.75163   1.00
H1       0.59848    0.18812    0.75749   1.00
C6       0.45515    0.14039    0.75490   1.00
C6       0.54119    0.14071    0.77075   1.00
H2       0.43345    0.14135    0.73167   1.00
H2       0.56310    0.14800    0.79260   1.00
H2       0.47286    0.11560    0.74609   1.00
H2       0.52228    0.12106    0.78694   1.00
C6       0.43606    0.13136    0.79548   1.00
C6       0.55942    0.11808    0.73542   1.00
H2       0.42292    0.15794    0.80725   1.00
H2       0.57383    0.13870    0.71581   1.00
C6       0.40459    0.09829    0.79713   1.00
C6       0.58911    0.08465    0.74483   1.00
H2       0.45949    0.12389    0.81577   1.00
H2       0.53546    0.10568    0.71844   1.00
C6       0.36735    0.10946    0.77393   1.00
C6       0.62708    0.10076    0.76349   1.00
C6       0.42074    0.05910    0.78142   1.00
C6       0.57107    0.05354    0.77222   1.00
C6       0.39245    0.09208    0.84034   1.00
C6       0.60054    0.06419    0.70604   1.00
H2       0.35558    0.13735    0.78391   1.00
H2       0.64020    0.12328    0.74514   1.00
H2       0.37330    0.11194    0.74282   1.00
H2       0.62154    0.11347    0.79208   1.00
H2       0.34459    0.08747    0.77748   1.00
H2       0.64863    0.07765    0.76743   1.00
H2       0.39955    0.03563    0.78527   1.00
H2       0.59098    0.02901    0.77634   1.00
H2       0.42725    0.06109    0.75035   1.00
H2       0.56494    0.06580    0.80092   1.00
H2       0.44745    0.05096    0.79672   1.00
H2       0.54385    0.04230    0.76014   1.00
H2       0.38042    0.11886    0.85275   1.00
H2       0.61383    0.08485    0.68575   1.00
H2       0.37025    0.06937    0.84298   1.00
H2       0.62149    0.04072    0.71107   1.00
H2       0.41739    0.08334    0.85811   1.00
H2       0.57502    0.05149    0.69183   1.00
C4       0.25479    0.01975    0.74990   1.00
C4       0.25568    -0.02191   0.74863   1.00
C3       0.25801    0.04103    0.78547   1.00
C3       0.26395    -0.04504   0.78218   1.00
C3       0.25047    0.04146    0.71452   1.00
C3       0.24816    -0.04170   0.71267   1.00
C2       0.25491    0.10405    0.75230   1.00
C2       0.25562    -0.10622   0.74654   1.00
C3       0.25828    0.08189    0.78670   1.00
C3       0.26374    -0.08591   0.78129   1.00
C3       0.25109    0.08304    0.71700   1.00
C3       0.24801    -0.08336   0.71305   1.00
H1       0.25990    0.02763    0.81188   1.00
H1       0.27081    -0.03306   0.80844   1.00
C5       0.24546    0.02165    0.67799   1.00
C5       0.24127    -0.01998   0.67757   1.00
H1       0.26085    0.09549    0.81328   1.00
H1       0.26978    -0.10091   0.80653   1.00
H1       0.24837    0.09948    0.69245   1.00
H1       0.24251    -0.09848   0.68812   1.00
C6       0.24510    0.04485    0.64039   1.00
C6       0.22925    -0.04119   0.64071   1.00
H2       0.26833    0.06655    0.64135   1.00
H2       0.20740    -0.06310   0.64800   1.00
H2       0.25391    0.02714    0.61560   1.00
H2       0.21306    -0.02228   0.62106   1.00
C6       0.20452    0.06394    0.63136   1.00
C6       0.26458    -0.05942   0.61808   1.00
H2       0.19275    0.07708    0.65794   1.00
H2       0.28419    -0.07383   0.63870   1.00
C6       0.20287    0.09541    0.59829   1.00
C6       0.25517    -0.08911   0.58465   1.00
H2       0.18423    0.04051    0.62389   1.00
H2       0.28156    -0.03546   0.60568   1.00
C6       0.22607    0.13265    0.60946   1.00
C6       0.23651    -0.12708   0.60076   1.00
C6       0.21858    0.07926    0.55910   1.00
C6       0.22778    -0.07107   0.55354   1.00
C6       0.15966    0.10755    0.59208   1.00
C6       0.29396    -0.10054   0.56419   1.00
H2       0.21609    0.14442    0.63735   1.00
H2       0.25486    -0.14020   0.62328   1.00
H2       0.25718    0.12670    0.61194   1.00
H2       0.20792    -0.12154   0.61347   1.00
H2       0.22252    0.15541    0.58747   1.00
H2       0.23257    -0.14863   0.57765   1.00
H2       0.21473    0.10045    0.53563   1.00
H2       0.22366    -0.09098   0.52901   1.00
H2       0.24965    0.07275    0.56109   1.00
H2       0.19908    -0.06494   0.56580   1.00
H2       0.20328    0.05255    0.55096   1.00
H2       0.23986    -0.04385   0.54230   1.00
H2       0.14725    0.11958    0.61886   1.00
H2       0.31425    -0.11383   0.58485   1.00
H2       0.15702    0.12975    0.56937   1.00
H2       0.28893    -0.12149   0.54072   1.00
H2       0.14189    0.08261    0.58334   1.00
H2       0.30817    -0.07502   0.55149   1.00
C4       0.24990    0.25479    0.51975   1.00
C4       0.24863    0.25568    0.47809   1.00
C3       0.28547    0.25801    0.54103   1.00
C3       0.28218    0.26395    0.45496   1.00
C3       0.21452    0.25047    0.54146   1.00
C3       0.21267    0.24816    0.45830   1.00
C2       0.25230    0.25491    0.60405   1.00
C2       0.24654    0.25562    0.39378   1.00
C3       0.28670    0.25828    0.58189   1.00
C3       0.28129    0.26374    0.41409   1.00
C3       0.21700    0.25109    0.58304   1.00
C3       0.21305    0.24801    0.41664   1.00
H1       0.31188    0.25990    0.52763   1.00
H1       0.30844    0.27081    0.46694   1.00
C5       0.17799    0.24546    0.52165   1.00
C5       0.17757    0.24127    0.48002   1.00
H1       0.31328    0.26085    0.59549   1.00
H1       0.30653    0.26978    0.39909   1.00
H1       0.19245    0.24837    0.59948   1.00
H1       0.18812    0.24251    0.40152   1.00
C6       0.14039    0.24510    0.54485   1.00
C6       0.14071    0.22925    0.45881   1.00
H2       0.14135    0.26833    0.56655   1.00
H2       0.14800    0.20740    0.43690   1.00
H2       0.11560    0.25391    0.52714   1.00
H2       0.12106    0.21306    0.47772   1.00
C6       0.13136    0.20452    0.56394   1.00
C6       0.11808    0.26458    0.44058   1.00
H2       0.15794    0.19275    0.57708   1.00
H2       0.13870    0.28419    0.42617   1.00
C6       0.09829    0.20287    0.59541   1.00
C6       0.08465    0.25517    0.41089   1.00
H2       0.12389    0.18423    0.54051   1.00
H2       0.10568    0.28156    0.46454   1.00
C6       0.10946    0.22607    0.63265   1.00
C6       0.10076    0.23651    0.37292   1.00
C6       0.05910    0.21858    0.57926   1.00
C6       0.05354    0.22778    0.42893   1.00
C6       0.09208    0.15966    0.60755   1.00
C6       0.06419    0.29396    0.39946   1.00
H2       0.13735    0.21609    0.64442   1.00
H2       0.12328    0.25486    0.35980   1.00
H2       0.11194    0.25718    0.62670   1.00
H2       0.11347    0.20792    0.37846   1.00
H2       0.08747    0.22252    0.65541   1.00
H2       0.07765    0.23257    0.35137   1.00
H2       0.03563    0.21473    0.60045   1.00
H2       0.02901    0.22366    0.40902   1.00
H2       0.06109    0.24965    0.57275   1.00
H2       0.06580    0.19908    0.43506   1.00
H2       0.05096    0.20328    0.55255   1.00
H2       0.04230    0.23986    0.45615   1.00
H2       0.11886    0.14725    0.61958   1.00
H2       0.08485    0.31425    0.38617   1.00
H2       0.06937    0.15702    0.62975   1.00
H2       0.04072    0.28893    0.37851   1.00
H2       0.08334    0.14189    0.58261   1.00
H2       0.05149    0.30817    0.42498   1.00
C4       0.24990    0.74521    0.48025   1.00
C4       0.24863    0.74432    0.52191   1.00
C3       0.28547    0.74199    0.45897   1.00
C3       0.28218    0.73605    0.54504   1.00
C3       0.21452    0.74953    0.45854   1.00
C3       0.21267    0.75184    0.54170   1.00
C2       0.25230    0.74509    0.39595   1.00
C2       0.24654    0.74438    0.60622   1.00
C3       0.28670    0.74172    0.41811   1.00
C3       0.28129    0.73626    0.58591   1.00
C3       0.21700    0.74891    0.41696   1.00
C3       0.21305    0.75199    0.58336   1.00
H1       0.31188    0.74010    0.47237   1.00
H1       0.30844    0.72919    0.53306   1.00
C5       0.17799    0.75454    0.47835   1.00
C5       0.17757    0.75873    0.51998   1.00
H1       0.31328    0.73915    0.40451   1.00
H1       0.30653    0.73022    0.60091   1.00
H1       0.19245    0.75163    0.40052   1.00
H1       0.18812    0.75749    0.59848   1.00
C6       0.14039    0.75490    0.45515   1.00
C6       0.14071    0.77075    0.54119   1.00
H2       0.14135    0.73167    0.43345   1.00
H2       0.14800    0.79260    0.56310   1.00
H2       0.11560    0.74609    0.47286   1.00
H2       0.12106    0.78694    0.52228   1.00
C6       0.13136    0.79548    0.43606   1.00
C6       0.11808    0.73542    0.55942   1.00
H2       0.15794    0.80725    0.42292   1.00
H2       0.13870    0.71581    0.57383   1.00
C6       0.09829    0.79713    0.40459   1.00
C6       0.08465    0.74483    0.58911   1.00
H2       0.12389    0.81577    0.45949   1.00
H2       0.10568    0.71844    0.53546   1.00
C6       0.10946    0.77393    0.36735   1.00
C6       0.10076    0.76349    0.62708   1.00
C6       0.05910    0.78142    0.42074   1.00
C6       0.05354    0.77222    0.57107   1.00
C6       0.09208    0.84034    0.39245   1.00
C6       0.06419    0.70604    0.60054   1.00
H2       0.13735    0.78391    0.35558   1.00
H2       0.12328    0.74514    0.64020   1.00
H2       0.11194    0.74282    0.37330   1.00
H2       0.11347    0.79208    0.62154   1.00
H2       0.08747    0.77748    0.34459   1.00
H2       0.07765    0.76743    0.64863   1.00
H2       0.03563    0.78527    0.39955   1.00
H2       0.02901    0.77634    0.59098   1.00
H2       0.06109    0.75035    0.42725   1.00
H2       0.06580    0.80092    0.56494   1.00
H2       0.05096    0.79672    0.44745   1.00
H2       0.04230    0.76014    0.54385   1.00
H2       0.11886    0.85275    0.38042   1.00
H2       0.08485    0.68575    0.61383   1.00
H2       0.06937    0.84298    0.37025   1.00
H2       0.04072    0.71107    0.62149   1.00
H2       0.08334    0.85811    0.41739   1.00
H2       0.05149    0.69183    0.57502   1.00
C4       0.24521    0.98025    0.24990   1.00
C4       0.24432    1.02191    0.24863   1.00
C3       0.24199    0.95897    0.28547   1.00
C3       0.23605    1.04504    0.28218   1.00
C3       0.24953    0.95854    0.21452   1.00
C3       0.25184    1.04170    0.21267   1.00
C2       0.24509    0.89595    0.25230   1.00
C2       0.24438    1.10622    0.24654   1.00
C3       0.24172    0.91811    0.28670   1.00
C3       0.23626    1.08591    0.28129   1.00
C3       0.24891    0.91696    0.21700   1.00
C3       0.25199    1.08336    0.21305   1.00
H1       0.24010    0.97237    0.31188   1.00
H1       0.22919    1.03306    0.30844   1.00
C5       0.25454    0.97835    0.17799   1.00
C5       0.25873    1.01998    0.17757   1.00
H1       0.23915    0.90451    0.31328   1.00
H1       0.23022    1.10091    0.30653   1.00
H1       0.25163    0.90052    0.19245   1.00
H1       0.25749    1.09848    0.18812   1.00
C6       0.25490    0.95515    0.14039   1.00
C6       0.27075    1.04119    0.14071   1.00
H2       0.23167    0.93345    0.14135   1.00
H2       0.29260    1.06310    0.14800   1.00
H2       0.24609    0.97286    0.11560   1.00
H2       0.28694    1.02228    0.12106   1.00
C6       0.29548    0.93606    0.13136   1.00
C6       0.23542    1.05942    0.11808   1.00
H2       0.30725    0.92292    0.15794   1.00
H2       0.21581    1.07383    0.13870   1.00
C6       0.29713    0.90459    0.09829   1.00
C6       0.24483    1.08911    0.08465   1.00
H2       0.31577    0.95949    0.12389   1.00
H2       0.21844    1.03546    0.10568   1.00
C6       0.27393    0.86735    0.10946   1.00
C6       0.26349    1.12708    0.10076   1.00
C6       0.28142    0.92074    0.05910   1.00
C6       0.27222    1.07107    0.05354   1.00
C6       0.34034    0.89245    0.09208   1.00
C6       0.20604    1.10054    0.06419   1.00
H2       0.28391    0.85558    0.13735   1.00
H2       0.24514    1.14020    0.12328   1.00
H2       0.24282    0.87330    0.11194   1.00
H2       0.29208    1.12154    0.11347   1.00
H2       0.27748    0.84459    0.08747   1.00
H2       0.26743    1.14863    0.07765   1.00
H2       0.28527    0.89955    0.03563   1.00
H2       0.27634    1.09098    0.02901   1.00
H2       0.25035    0.92725    0.06109   1.00
H2       0.30092    1.06494    0.06580   1.00
H2       0.29672    0.94745    0.05096   1.00
H2       0.26014    1.04385    0.04230   1.00
H2       0.35275    0.88042    0.11886   1.00
H2       0.18575    1.11383    0.08485   1.00
H2       0.34298    0.87025    0.06937   1.00
H2       0.21107    1.12149    0.04072   1.00
H2       0.35811    0.91739    0.08334   1.00
H2       0.19183    1.07502    0.05149   1.00
C4       0.01975    0.74990    0.25479   1.00
C4       -0.02191   0.74863    0.25568   1.00
C3       0.04103    0.78547    0.25801   1.00
C3       -0.04504   0.78218    0.26395   1.00
C3       0.04146    0.71452    0.25047   1.00
C3       -0.04170   0.71267    0.24816   1.00
C2       0.10405    0.75230    0.25491   1.00
C2       -0.10622   0.74654    0.25562   1.00
C3       0.08189    0.78670    0.25828   1.00
C3       -0.08591   0.78129    0.26374   1.00
C3       0.08304    0.71700    0.25109   1.00
C3       -0.08336   0.71305    0.24801   1.00
H1       0.02763    0.81188    0.25990   1.00
H1       -0.03306   0.80844    0.27081   1.00
C5       0.02165    0.67799    0.24546   1.00
C5       -0.01998   0.67757    0.24127   1.00
H1       0.09549    0.81328    0.26085   1.00
H1       -0.10091   0.80653    0.26978   1.00
H1       0.09948    0.69245    0.24837   1.00
H1       -0.09848   0.68812    0.24251   1.00
C6       0.04485    0.64039    0.24510   1.00
C6       -0.04119   0.64071    0.22925   1.00
H2       0.06655    0.64135    0.26833   1.00
H2       -0.06310   0.64800    0.20740   1.00
H2       0.02714    0.61560    0.25391   1.00
H2       -0.02228   0.62106    0.21306   1.00
C6       0.06394    0.63136    0.20452   1.00
C6       -0.05942   0.61808    0.26458   1.00
H2       0.07708    0.65794    0.19275   1.00
H2       -0.07383   0.63870    0.28419   1.00
C6       0.09541    0.59829    0.20287   1.00
C6       -0.08911   0.58465    0.25517   1.00
H2       0.04051    0.62389    0.18423   1.00
H2       -0.03546   0.60568    0.28156   1.00
C6       0.13265    0.60946    0.22607   1.00
C6       -0.12708   0.60076    0.23651   1.00
C6       0.07926    0.55910    0.21858   1.00
C6       -0.07107   0.55354    0.22778   1.00
C6       0.10755    0.59208    0.15966   1.00
C6       -0.10054   0.56419    0.29396   1.00
H2       0.14442    0.63735    0.21609   1.00
H2       -0.14020   0.62328    0.25486   1.00
H2       0.12670    0.61194    0.25718   1.00
H2       -0.12154   0.61347    0.20792   1.00
H2       0.15541    0.58747    0.22252   1.00
H2       -0.14863   0.57765    0.23257   1.00
H2       0.10045    0.53563    0.21473   1.00
H2       -0.09098   0.52901    0.22366   1.00
H2       0.07275    0.56109    0.24965   1.00
H2       -0.06494   0.56580    0.19908   1.00
H2       0.05255    0.55096    0.20328   1.00
H2       -0.04385   0.54230    0.23986   1.00
H2       0.11958    0.61886    0.14725   1.00
H2       -0.11383   0.58485    0.31425   1.00
H2       0.12975    0.56937    0.15702   1.00
H2       -0.12149   0.54072    0.28893   1.00
H2       0.08261    0.58334    0.14189   1.00
H2       -0.07502   0.55149    0.30817   1.00
C4       0.48025    0.74990    0.24521   1.00
C4       0.52191    0.74863    0.24432   1.00
C3       0.45897    0.78547    0.24199   1.00
C3       0.54504    0.78218    0.23605   1.00
C3       0.45854    0.71452    0.24953   1.00
C3       0.54170    0.71267    0.25184   1.00
C2       0.39595    0.75230    0.24509   1.00
C2       0.60622    0.74654    0.24438   1.00
C3       0.41811    0.78670    0.24172   1.00
C3       0.58591    0.78129    0.23626   1.00
C3       0.41696    0.71700    0.24891   1.00
C3       0.58336    0.71305    0.25199   1.00
H1       0.47237    0.81188    0.24010   1.00
H1       0.53306    0.80844    0.22919   1.00
C5       0.47835    0.67799    0.25454   1.00
C5       0.51998    0.67757    0.25873   1.00
H1       0.40451    0.81328    0.23915   1.00
H1       0.60091    0.80653    0.23022   1.00
H1       0.40052    0.69245    0.25163   1.00
H1       0.59848    0.68812    0.25749   1.00
C6       0.45515    0.64039    0.25490   1.00
C6       0.54119    0.64071    0.27075   1.00
H2       0.43345    0.64135    0.23167   1.00
H2       0.56310    0.64800    0.29260   1.00
H2       0.47286    0.61560    0.24609   1.00
H2       0.52228    0.62106    0.28694   1.00
C6       0.43606    0.63136    0.29548   1.00
C6       0.55942    0.61808    0.23542   1.00
H2       0.42292    0.65794    0.30725   1.00
H2       0.57383    0.63870    0.21581   1.00
C6       0.40459    0.59829    0.29713   1.00
C6       0.58911    0.58465    0.24483   1.00
H2       0.45949    0.62389    0.31577   1.00
H2       0.53546    0.60568    0.21844   1.00
C6       0.36735    0.60946    0.27393   1.00
C6       0.62708    0.60076    0.26349   1.00
C6       0.42074    0.55910    0.28142   1.00
C6       0.57107    0.55354    0.27222   1.00
C6       0.39245    0.59208    0.34034   1.00
C6       0.60054    0.56419    0.20604   1.00
H2       0.35558    0.63735    0.28391   1.00
H2       0.64020    0.62328    0.24514   1.00
H2       0.37330    0.61194    0.24282   1.00
H2       0.62154    0.61347    0.29208   1.00
H2       0.34459    0.58747    0.27748   1.00
H2       0.64863    0.57765    0.26743   1.00
H2       0.39955    0.53563    0.28527   1.00
H2       0.59098    0.52901    0.27634   1.00
H2       0.42725    0.56109    0.25035   1.00
H2       0.56494    0.56580    0.30092   1.00
H2       0.44745    0.55096    0.29672   1.00
H2       0.54385    0.54230    0.26014   1.00
H2       0.38042    0.61886    0.35275   1.00
H2       0.61383    0.58485    0.18575   1.00
H2       0.37025    0.56937    0.34298   1.00
H2       0.62149    0.54072    0.21107   1.00
H2       0.41739    0.58334    0.35811   1.00
H2       0.57502    0.55149    0.19183   1.00
C4       0.25479    0.51975    0.24990   1.00
C4       0.25568    0.47809    0.24863   1.00
C3       0.25801    0.54103    0.28547   1.00
C3       0.26395    0.45496    0.28218   1.00
C3       0.25047    0.54146    0.21452   1.00
C3       0.24816    0.45830    0.21267   1.00
C2       0.25491    0.60405    0.25230   1.00
C2       0.25562    0.39378    0.24654   1.00
C3       0.25828    0.58189    0.28670   1.00
C3       0.26374    0.41409    0.28129   1.00
C3       0.25109    0.58304    0.21700   1.00
C3       0.24801    0.41664    0.21305   1.00
H1       0.25990    0.52763    0.31188   1.00
H1       0.27081    0.46694    0.30844   1.00
C5       0.24546    0.52165    0.17799   1.00
C5       0.24127    0.48002    0.17757   1.00
H1       0.26085    0.59549    0.31328   1.00
H1       0.26978    0.39909    0.30653   1.00
H1       0.24837    0.59948    0.19245   1.00
H1       0.24251    0.40152    0.18812   1.00
C6       0.24510    0.54485    0.14039   1.00
C6       0.22925    0.45881    0.14071   1.00
H2       0.26833    0.56655    0.14135   1.00
H2       0.20740    0.43690    0.14800   1.00
H2       0.25391    0.52714    0.11560   1.00
H2       0.21306    0.47772    0.12106   1.00
C6       0.20452    0.56394    0.13136   1.00
C6       0.26458    0.44058    0.11808   1.00
H2       0.19275    0.57708    0.15794   1.00
H2       0.28419    0.42617    0.13870   1.00
C6       0.20287    0.59541    0.09829   1.00
C6       0.25517    0.41089    0.08465   1.00
H2       0.18423    0.54051    0.12389   1.00
H2       0.28156    0.46454    0.10568   1.00
C6       0.22607    0.63265    0.10946   1.00
C6       0.23651    0.37292    0.10076   1.00
C6       0.21858    0.57926    0.05910   1.00
C6       0.22778    0.42893    0.05354   1.00
C6       0.15966    0.60755    0.09208   1.00
C6       0.29396    0.39946    0.06419   1.00
H2       0.21609    0.64442    0.13735   1.00
H2       0.25486    0.35980    0.12328   1.00
H2       0.25718    0.62670    0.11194   1.00
H2       0.20792    0.37846    0.11347   1.00
H2       0.22252    0.65541    0.08747   1.00
H2       0.23257    0.35137    0.07765   1.00
H2       0.21473    0.60045    0.03563   1.00
H2       0.22366    0.40902    0.02901   1.00
H2       0.24965    0.57275    0.06109   1.00
H2       0.19908    0.43506    0.06580   1.00
H2       0.20328    0.55255    0.05096   1.00
H2       0.23986    0.45615    0.04230   1.00
H2       0.14725    0.61958    0.11886   1.00
H2       0.31425    0.38617    0.08485   1.00
H2       0.15702    0.62975    0.06937   1.00
H2       0.28893    0.37851    0.04072   1.00
H2       0.14189    0.58261    0.08334   1.00
H2       0.30817    0.42498    0.05149   1.00
C4       0.24990    0.75479    0.01975   1.00
C4       0.24863    0.75568    -0.02191   1.00
C3       0.28547    0.75801    0.04103   1.00
C3       0.28218    0.76395    -0.04504   1.00
C3       0.21452    0.75047    0.04146   1.00
C3       0.21267    0.74816    -0.04170   1.00
C2       0.25230    0.75491    0.10405   1.00
C2       0.24654    0.75562    -0.10622   1.00
C3       0.28670    0.75828    0.08189   1.00
C3       0.28129    0.76374    -0.08591   1.00
C3       0.21700    0.75109    0.08304   1.00
C3       0.21305    0.74801    -0.08336   1.00
H1       0.31188    0.75990    0.02763   1.00
H1       0.30844    0.77081    -0.03306   1.00
C5       0.17799    0.74546    0.02165   1.00
C5       0.17757    0.74127    -0.01998   1.00
H1       0.31328    0.76085    0.09549   1.00
H1       0.30653    0.76978    -0.10091   1.00
H1       0.19245    0.74837    0.09948   1.00
H1       0.18812    0.74251    -0.09848   1.00
C6       0.14039    0.74510    0.04485   1.00
C6       0.14071    0.72925    -0.04119   1.00
H2       0.14135    0.76833    0.06655   1.00
H2       0.14800    0.70740    -0.06310   1.00
H2       0.11560    0.75391    0.02714   1.00
H2       0.12106    0.71306    -0.02228   1.00
C6       0.13136    0.70452    0.06394   1.00
C6       0.11808    0.76458    -0.05942   1.00
H2       0.15794    0.69275    0.07708   1.00
H2       0.13870    0.78419    -0.07383   1.00
C6       0.09829    0.70287    0.09541   1.00
C6       0.08465    0.75517    -0.08911   1.00
H2       0.12389    0.68423    0.04051   1.00
H2       0.10568    0.78156    -0.03546   1.00
C6       0.10946    0.72607    0.13265   1.00
C6       0.10076    0.73651    -0.12708   1.00
C6       0.05910    0.71858    0.07926   1.00
C6       0.05354    0.72778    -0.07107   1.00
C6       0.09208    0.65966    0.10755   1.00
C6       0.06419    0.79396    -0.10054   1.00
H2       0.13735    0.71609    0.14442   1.00
H2       0.12328    0.75486    -0.14020   1.00
H2       0.11194    0.75718    0.12670   1.00
H2       0.11347    0.70792    -0.12154   1.00
H2       0.08747    0.72252    0.15541   1.00
H2       0.07765    0.73257    -0.14863   1.00
H2       0.03563    0.71473    0.10045   1.00
H2       0.02901    0.72366    -0.09098   1.00
H2       0.06109    0.74965    0.07275   1.00
H2       0.06580    0.69908    -0.06494   1.00
H2       0.05096    0.70328    0.05255   1.00
H2       0.04230    0.73986    -0.04385   1.00
H2       0.11886    0.64725    0.11958   1.00
H2       0.08485    0.81425    -0.11383   1.00
H2       0.06937    0.65702    0.12975   1.00
H2       0.04072    0.78893    -0.12149   1.00
H2       0.08334    0.64189    0.08261   1.00
H2       0.05149    0.80817    -0.07502   1.00
C4       0.74990    0.24521    0.48025   1.00
C4       0.74863    0.24432    0.52191   1.00
C3       0.78547    0.24199    0.45897   1.00
C3       0.78218    0.23605    0.54504   1.00
C3       0.71452    0.24953    0.45854   1.00
C3       0.71267    0.25184    0.54170   1.00
C2       0.75230    0.24509    0.39595   1.00
C2       0.74654    0.24438    0.60622   1.00
C3       0.78670    0.24172    0.41811   1.00
C3       0.78129    0.23626    0.58591   1.00
C3       0.71700    0.24891    0.41696   1.00
C3       0.71305    0.25199    0.58336   1.00
H1       0.81188    0.24010    0.47237   1.00
H1       0.80844    0.22919    0.53306   1.00
C5       0.67799    0.25454    0.47835   1.00
C5       0.67757    0.25873    0.51998   1.00
H1       0.81328    0.23915    0.40451   1.00
H1       0.80653    0.23022    0.60091   1.00
H1       0.69245    0.25163    0.40052   1.00
H1       0.68812    0.25749    0.59848   1.00
C6       0.64039    0.25490    0.45515   1.00
C6       0.64071    0.27075    0.54119   1.00
H2       0.64135    0.23167    0.43345   1.00
H2       0.64800    0.29260    0.56310   1.00
H2       0.61560    0.24609    0.47286   1.00
H2       0.62106    0.28694    0.52228   1.00
C6       0.63136    0.29548    0.43606   1.00
C6       0.61808    0.23542    0.55942   1.00
H2       0.65794    0.30725    0.42292   1.00
H2       0.63870    0.21581    0.57383   1.00
C6       0.59829    0.29713    0.40459   1.00
C6       0.58465    0.24483    0.58911   1.00
H2       0.62389    0.31577    0.45949   1.00
H2       0.60568    0.21844    0.53546   1.00
C6       0.60946    0.27393    0.36735   1.00
C6       0.60076    0.26349    0.62708   1.00
C6       0.55910    0.28142    0.42074   1.00
C6       0.55354    0.27222    0.57107   1.00
C6       0.59208    0.34034    0.39245   1.00
C6       0.56419    0.20604    0.60054   1.00
H2       0.63735    0.28391    0.35558   1.00
H2       0.62328    0.24514    0.64020   1.00
H2       0.61194    0.24282    0.37330   1.00
H2       0.61347    0.29208    0.62154   1.00
H2       0.58747    0.27748    0.34459   1.00
H2       0.57765    0.26743    0.64863   1.00
H2       0.53563    0.28527    0.39955   1.00
H2       0.52901    0.27634    0.59098   1.00
H2       0.56109    0.25035    0.42725   1.00
H2       0.56580    0.30092    0.56494   1.00
H2       0.55096    0.29672    0.44745   1.00
H2       0.54230    0.26014    0.54385   1.00
H2       0.61886    0.35275    0.38042   1.00
H2       0.58485    0.18575    0.61383   1.00
H2       0.56937    0.34298    0.37025   1.00
H2       0.54072    0.21107    0.62149   1.00
H2       0.58334    0.35811    0.41739   1.00
H2       0.55149    0.19183    0.57502   1.00
C4       0.74521    0.48025    0.24990   1.00
C4       0.74432    0.52191    0.24863   1.00
C3       0.74199    0.45897    0.28547   1.00
C3       0.73605    0.54504    0.28218   1.00
C3       0.74953    0.45854    0.21452   1.00
C3       0.75184    0.54170    0.21267   1.00
C2       0.74509    0.39595    0.25230   1.00
C2       0.74438    0.60622    0.24654   1.00
C3       0.74172    0.41811    0.28670   1.00
C3       0.73626    0.58591    0.28129   1.00
C3       0.74891    0.41696    0.21700   1.00
C3       0.75199    0.58336    0.21305   1.00
H1       0.74010    0.47237    0.31188   1.00
H1       0.72919    0.53306    0.30844   1.00
C5       0.75454    0.47835    0.17799   1.00
C5       0.75873    0.51998    0.17757   1.00
H1       0.73915    0.40451    0.31328   1.00
H1       0.73022    0.60091    0.30653   1.00
H1       0.75163    0.40052    0.19245   1.00
H1       0.75749    0.59848    0.18812   1.00
C6       0.75490    0.45515    0.14039   1.00
C6       0.77075    0.54119    0.14071   1.00
H2       0.73167    0.43345    0.14135   1.00
H2       0.79260    0.56310    0.14800   1.00
H2       0.74609    0.47286    0.11560   1.00
H2       0.78694    0.52228    0.12106   1.00
C6       0.79548    0.43606    0.13136   1.00
C6       0.73542    0.55942    0.11808   1.00
H2       0.80725    0.42292    0.15794   1.00
H2       0.71581    0.57383    0.13870   1.00
C6       0.79713    0.40459    0.09829   1.00
C6       0.74483    0.58911    0.08465   1.00
H2       0.81577    0.45949    0.12389   1.00
H2       0.71844    0.53546    0.10568   1.00
C6       0.77393    0.36735    0.10946   1.00
C6       0.76349    0.62708    0.10076   1.00
C6       0.78142    0.42074    0.05910   1.00
C6       0.77222    0.57107    0.05354   1.00
C6       0.84034    0.39245    0.09208   1.00
C6       0.70604    0.60054    0.06419   1.00
H2       0.78391    0.35558    0.13735   1.00
H2       0.74514    0.64020    0.12328   1.00
H2       0.74282    0.37330    0.11194   1.00
H2       0.79208    0.62154    0.11347   1.00
H2       0.77748    0.34459    0.08747   1.00
H2       0.76743    0.64863    0.07765   1.00
H2       0.78527    0.39955    0.03563   1.00
H2       0.77634    0.59098    0.02901   1.00
H2       0.75035    0.42725    0.06109   1.00
H2       0.80092    0.56494    0.06580   1.00
H2       0.79672    0.44745    0.05096   1.00
H2       0.76014    0.54385    0.04230   1.00
H2       0.85275    0.38042    0.11886   1.00
H2       0.68575    0.61383    0.08485   1.00
H2       0.84298    0.37025    0.06937   1.00
H2       0.71107    0.62149    0.04072   1.00
H2       0.85811    0.41739    0.08334   1.00
H2       0.69183    0.57502    0.05149   1.00
C4       0.51975    0.24990    0.25479   1.00
C4       0.47809    0.24863    0.25568   1.00
C3       0.54103    0.28547    0.25801   1.00
C3       0.45496    0.28218    0.26395   1.00
C3       0.54146    0.21452    0.25047   1.00
C3       0.45830    0.21267    0.24816   1.00
C2       0.60405    0.25230    0.25491   1.00
C2       0.39378    0.24654    0.25562   1.00
C3       0.58189    0.28670    0.25828   1.00
C3       0.41409    0.28129    0.26374   1.00
C3       0.58304    0.21700    0.25109   1.00
C3       0.41664    0.21305    0.24801   1.00
H1       0.52763    0.31188    0.25990   1.00
H1       0.46694    0.30844    0.27081   1.00
C5       0.52165    0.17799    0.24546   1.00
C5       0.48002    0.17757    0.24127   1.00
H1       0.59549    0.31328    0.26085   1.00
H1       0.39909    0.30653    0.26978   1.00
H1       0.59948    0.19245    0.24837   1.00
H1       0.40152    0.18812    0.24251   1.00
C6       0.54485    0.14039    0.24510   1.00
C6       0.45881    0.14071    0.22925   1.00
H2       0.56655    0.14135    0.26833   1.00
H2       0.43690    0.14800    0.20740   1.00
H2       0.52714    0.11560    0.25391   1.00
H2       0.47772    0.12106    0.21306   1.00
C6       0.56394    0.13136    0.20452   1.00
C6       0.44058    0.11808    0.26458   1.00
H2       0.57708    0.15794    0.19275   1.00
H2       0.42617    0.13870    0.28419   1.00
C6       0.59541    0.09829    0.20287   1.00
C6       0.41089    0.08465    0.25517   1.00
H2       0.54051    0.12389    0.18423   1.00
H2       0.46454    0.10568    0.28156   1.00
C6       0.63265    0.10946    0.22607   1.00
C6       0.37292    0.10076    0.23651   1.00
C6       0.57926    0.05910    0.21858   1.00
C6       0.42893    0.05354    0.22778   1.00
C6       0.60755    0.09208    0.15966   1.00
C6       0.39946    0.06419    0.29396   1.00
H2       0.64442    0.13735    0.21609   1.00
H2       0.35980    0.12328    0.25486   1.00
H2       0.62670    0.11194    0.25718   1.00
H2       0.37846    0.11347    0.20792   1.00
H2       0.65541    0.08747    0.22252   1.00
H2       0.35137    0.07765    0.23257   1.00
H2       0.60045    0.03563    0.21473   1.00
H2       0.40902    0.02901    0.22366   1.00
H2       0.57275    0.06109    0.24965   1.00
H2       0.43506    0.06580    0.19908   1.00
H2       0.55255    0.05096    0.20328   1.00
H2       0.45615    0.04230    0.23986   1.00
H2       0.61958    0.11886    0.14725   1.00
H2       0.38617    0.08485    0.31425   1.00
H2       0.62975    0.06937    0.15702   1.00
H2       0.37851    0.04072    0.28893   1.00
H2       0.58261    0.08334    0.14189   1.00
H2       0.42498    0.05149    0.30817   1.00
C4       0.98025    0.24990    0.24521   1.00
C4       1.02191    0.24863    0.24432   1.00
C3       0.95897    0.28547    0.24199   1.00
C3       1.04504    0.28218    0.23605   1.00
C3       0.95854    0.21452    0.24953   1.00
C3       1.04170    0.21267    0.25184   1.00
C2       0.89595    0.25230    0.24509   1.00
C2       1.10622    0.24654    0.24438   1.00
C3       0.91811    0.28670    0.24172   1.00
C3       1.08591    0.28129    0.23626   1.00
C3       0.91696    0.21700    0.24891   1.00
C3       1.08336    0.21305    0.25199   1.00
H1       0.97237    0.31188    0.24010   1.00
H1       1.03306    0.30844    0.22919   1.00
C5       0.97835    0.17799    0.25454   1.00
C5       1.01998    0.17757    0.25873   1.00
H1       0.90451    0.31328    0.23915   1.00
H1       1.10091    0.30653    0.23022   1.00
H1       0.90052    0.19245    0.25163   1.00
H1       1.09848    0.18812    0.25749   1.00
C6       0.95515    0.14039    0.25490   1.00
C6       1.04119    0.14071    0.27075   1.00
H2       0.93345    0.14135    0.23167   1.00
H2       1.06310    0.14800    0.29260   1.00
H2       0.97286    0.11560    0.24609   1.00
H2       1.02228    0.12106    0.28694   1.00
C6       0.93606    0.13136    0.29548   1.00
C6       1.05942    0.11808    0.23542   1.00
H2       0.92292    0.15794    0.30725   1.00
H2       1.07383    0.13870    0.21581   1.00
C6       0.90459    0.09829    0.29713   1.00
C6       1.08911    0.08465    0.24483   1.00
H2       0.95949    0.12389    0.31577   1.00
H2       1.03546    0.10568    0.21844   1.00
C6       0.86735    0.10946    0.27393   1.00
C6       1.12708    0.10076    0.26349   1.00
C6       0.92074    0.05910    0.28142   1.00
C6       1.07107    0.05354    0.27222   1.00
C6       0.89245    0.09208    0.34034   1.00
C6       1.10054    0.06419    0.20604   1.00
H2       0.85558    0.13735    0.28391   1.00
H2       1.14020    0.12328    0.24514   1.00
H2       0.87330    0.11194    0.24282   1.00
H2       1.12154    0.11347    0.29208   1.00
H2       0.84459    0.08747    0.27748   1.00
H2       1.14863    0.07765    0.26743   1.00
H2       0.89955    0.03563    0.28527   1.00
H2       1.09098    0.02901    0.27634   1.00
H2       0.92725    0.06109    0.25035   1.00
H2       1.06494    0.06580    0.30092   1.00
H2       0.94745    0.05096    0.29672   1.00
H2       1.04385    0.04230    0.26014   1.00
H2       0.88042    0.11886    0.35275   1.00
H2       1.11383    0.08485    0.18575   1.00
H2       0.87025    0.06937    0.34298   1.00
H2       1.12149    0.04072    0.21107   1.00
H2       0.91739    0.08334    0.35811   1.00
H2       1.07502    0.05149    0.19183   1.00
C4       0.75479    0.01975    0.24990   1.00
C4       0.75568    -0.02191   0.24863   1.00
C3       0.75801    0.04103    0.28547   1.00
C3       0.76395    -0.04504   0.28218   1.00
C3       0.75047    0.04146    0.21452   1.00
C3       0.74816    -0.04170   0.21267   1.00
C2       0.75491    0.10405    0.25230   1.00
C2       0.75562    -0.10622   0.24654   1.00
C3       0.75828    0.08189    0.28670   1.00
C3       0.76374    -0.08591   0.28129   1.00
C3       0.75109    0.08304    0.21700   1.00
C3       0.74801    -0.08336   0.21305   1.00
H1       0.75990    0.02763    0.31188   1.00
H1       0.77081    -0.03306   0.30844   1.00
C5       0.74546    0.02165    0.17799   1.00
C5       0.74127    -0.01998   0.17757   1.00
H1       0.76085    0.09549    0.31328   1.00
H1       0.76978    -0.10091   0.30653   1.00
H1       0.74837    0.09948    0.19245   1.00
H1       0.74251    -0.09848   0.18812   1.00
C6       0.74510    0.04485    0.14039   1.00
C6       0.72925    -0.04119   0.14071   1.00
H2       0.76833    0.06655    0.14135   1.00
H2       0.70740    -0.06310   0.14800   1.00
H2       0.75391    0.02714    0.11560   1.00
H2       0.71306    -0.02228   0.12106   1.00
C6       0.70452    0.06394    0.13136   1.00
C6       0.76458    -0.05942   0.11808   1.00
H2       0.69275    0.07708    0.15794   1.00
H2       0.78419    -0.07383   0.13870   1.00
C6       0.70287    0.09541    0.09829   1.00
C6       0.75517    -0.08911   0.08465   1.00
H2       0.68423    0.04051    0.12389   1.00
H2       0.78156    -0.03546   0.10568   1.00
C6       0.72607    0.13265    0.10946   1.00
C6       0.73651    -0.12708   0.10076   1.00
C6       0.71858    0.07926    0.05910   1.00
C6       0.72778    -0.07107   0.05354   1.00
C6       0.65966    0.10755    0.09208   1.00
C6       0.79396    -0.10054   0.06419   1.00
H2       0.71609    0.14442    0.13735   1.00
H2       0.75486    -0.14020   0.12328   1.00
H2       0.75718    0.12670    0.11194   1.00
H2       0.70792    -0.12154   0.11347   1.00
H2       0.72252    0.15541    0.08747   1.00
H2       0.73257    -0.14863   0.07765   1.00
H2       0.71473    0.10045    0.03563   1.00
H2       0.72366    -0.09098   0.02901   1.00
H2       0.74965    0.07275    0.06109   1.00
H2       0.69908    -0.06494   0.06580   1.00
H2       0.70328    0.05255    0.05096   1.00
H2       0.73986    -0.04385   0.04230   1.00
H2       0.64725    0.11958    0.11886   1.00
H2       0.81425    -0.11383   0.08485   1.00
H2       0.65702    0.12975    0.06937   1.00
H2       0.78893    -0.12149   0.04072   1.00
H2       0.64189    0.08261    0.08334   1.00
H2       0.80817    -0.07502   0.05149   1.00
C4       0.74990    0.25479    0.01975   1.00
C4       0.74863    0.25568    -0.02191   1.00
C3       0.78547    0.25801    0.04103   1.00
C3       0.78218    0.26395    -0.04504   1.00
C3       0.71452    0.25047    0.04146   1.00
C3       0.71267    0.24816    -0.04170   1.00
C2       0.75230    0.25491    0.10405   1.00
C2       0.74654    0.25562    -0.10622   1.00
C3       0.78670    0.25828    0.08189   1.00
C3       0.78129    0.26374    -0.08591   1.00
C3       0.71700    0.25109    0.08304   1.00
C3       0.71305    0.24801    -0.08336   1.00
H1       0.81188    0.25990    0.02763   1.00
H1       0.80844    0.27081    -0.03306   1.00
C5       0.67799    0.24546    0.02165   1.00
C5       0.67757    0.24127    -0.01998   1.00
H1       0.81328    0.26085    0.09549   1.00
H1       0.80653    0.26978    -0.10091   1.00
H1       0.69245    0.24837    0.09948   1.00
H1       0.68812    0.24251    -0.09848   1.00
C6       0.64039    0.24510    0.04485   1.00
C6       0.64071    0.22925    -0.04119   1.00
H2       0.64135    0.26833    0.06655   1.00
H2       0.64800    0.20740    -0.06310   1.00
H2       0.61560    0.25391    0.02714   1.00
H2       0.62106    0.21306    -0.02228   1.00
C6       0.63136    0.20452    0.06394   1.00
C6       0.61808    0.26458    -0.05942   1.00
H2       0.65794    0.19275    0.07708   1.00
H2       0.63870    0.28419    -0.07383   1.00
C6       0.59829    0.20287    0.09541   1.00
C6       0.58465    0.25517    -0.08911   1.00
H2       0.62389    0.18423    0.04051   1.00
H2       0.60568    0.28156    -0.03546   1.00
C6       0.60946    0.22607    0.13265   1.00
C6       0.60076    0.23651    -0.12708   1.00
C6       0.55910    0.21858    0.07926   1.00
C6       0.55354    0.22778    -0.07107   1.00
C6       0.59208    0.15966    0.10755   1.00
C6       0.56419    0.29396    -0.10054   1.00
H2       0.63735    0.21609    0.14442   1.00
H2       0.62328    0.25486    -0.14020   1.00
H2       0.61194    0.25718    0.12670   1.00
H2       0.61347    0.20792    -0.12154   1.00
H2       0.58747    0.22252    0.15541   1.00
H2       0.57765    0.23257    -0.14863   1.00
H2       0.53563    0.21473    0.10045   1.00
H2       0.52901    0.22366    -0.09098   1.00
H2       0.56109    0.24965    0.07275   1.00
H2       0.56580    0.19908    -0.06494   1.00
H2       0.55096    0.20328    0.05255   1.00
H2       0.54230    0.23986    -0.04385   1.00
H2       0.61886    0.14725    0.11958   1.00
H2       0.58485    0.31425    -0.11383   1.00
H2       0.56937    0.15702    0.12975   1.00
H2       0.54072    0.28893    -0.12149   1.00
H2       0.58334    0.14189    0.08261   1.00
H2       0.55149    0.30817    -0.07502   1.00
C4       0.99990    0.99521    1.23025   1.00
C4       0.99863    0.99432    1.27191   1.00
C3       1.03547    0.99199    1.20897   1.00
C3       1.03218    0.98605    1.29504   1.00
C3       0.96452    0.99953    1.20854   1.00
C3       0.96267    1.00184    1.29170   1.00
C2       1.00230    0.99509    1.14595   1.00
C2       0.99654    0.99438    1.35622   1.00
C3       1.03670    0.99172    1.16811   1.00
C3       1.03129    0.98626    1.33591   1.00
C3       0.96700    0.99891    1.16696   1.00
C3       0.96305    1.00199    1.33336   1.00
H1       1.06188    0.99010    1.22237   1.00
H1       1.05844    0.97919    1.28306   1.00
C5       0.92799    1.00454    1.22835   1.00
C5       0.92757    1.00873    1.26998   1.00
H1       1.06328    0.98915    1.15451   1.00
H1       1.05653    0.98022    1.35091   1.00
H1       0.94245    1.00163    1.15052   1.00
H1       0.93812    1.00749    1.34848   1.00
C6       0.89039    1.00490    1.20515   1.00
C6       0.89071    1.02075    1.29119   1.00
H2       0.89135    0.98167    1.18345   1.00
H2       0.89800    1.04260    1.31310   1.00
H2       0.86560    0.99609    1.22286   1.00
H2       0.87106    1.03694    1.27228   1.00
C6       0.88136    1.04548    1.18606   1.00
C6       0.86808    0.98542    1.30942   1.00
H2       0.90794    1.05725    1.17292   1.00
H2       0.88870    0.96581    1.32383   1.00
C6       0.84829    1.04713    1.15459   1.00
C6       0.83465    0.99483    1.33911   1.00
H2       0.87389    1.06577    1.20949   1.00
H2       0.85568    0.96844    1.28546   1.00
C6       0.85946    1.02393    1.11735   1.00
C6       0.85076    1.01349    1.37708   1.00
C6       0.80910    1.03142    1.17074   1.00
C6       0.80354    1.02222    1.32107   1.00
C6       0.84208    1.09034    1.14245   1.00
C6       0.81419    0.95604    1.35054   1.00
H2       0.88735    1.03391    1.10558   1.00
H2       0.87328    0.99514    1.39020   1.00
H2       0.86194    0.99282    1.12330   1.00
H2       0.86347    1.04208    1.37154   1.00
H2       0.83747    1.02748    1.09459   1.00
H2       0.82765    1.01743    1.39863   1.00
H2       0.78563    1.03527    1.14955   1.00
H2       0.77901    1.02634    1.34098   1.00
H2       0.81109    1.00035    1.17725   1.00
H2       0.81580    1.05092    1.31494   1.00
H2       0.80096    1.04672    1.19745   1.00
H2       0.79230    1.01014    1.29385   1.00
H2       0.86886    1.10275    1.13042   1.00
H2       0.83485    0.93575    1.36383   1.00
H2       0.81937    1.09298    1.12025   1.00
H2       0.79072    0.96107    1.37149   1.00
H2       0.83334    1.10811    1.16739   1.00
H2       0.80149    0.94183    1.32502   1.00
C4       0.99521    1.23025    0.99990   1.00
C4       0.99432    1.27191    0.99863   1.00
C3       0.99199    1.20897    1.03547   1.00
C3       0.98605    1.29504    1.03218   1.00
C3       0.99953    1.20854    0.96452   1.00
C3       1.00184    1.29170    0.96267   1.00
C2       0.99509    1.14595    1.00230   1.00
C2       0.99438    1.35622    0.99654   1.00
C3       0.99172    1.16811    1.03670   1.00
C3       0.98626    1.33591    1.03129   1.00
C3       0.99891    1.16696    0.96700   1.00
C3       1.00199    1.33336    0.96305   1.00
H1       0.99010    1.22237    1.06188   1.00
H1       0.97919    1.28306    1.05844   1.00
C5       1.00454    1.22835    0.92799   1.00
C5       1.00873    1.26998    0.92757   1.00
H1       0.98915    1.15451    1.06328   1.00
H1       0.98022    1.35091    1.05653   1.00
H1       1.00163    1.15052    0.94245   1.00
H1       1.00749    1.34848    0.93812   1.00
C6       1.00490    1.20515    0.89039   1.00
C6       1.02075    1.29119    0.89071   1.00
H2       0.98167    1.18345    0.89135   1.00
H2       1.04260    1.31310    0.89800   1.00
H2       0.99609    1.22286    0.86560   1.00
H2       1.03694    1.27228    0.87106   1.00
C6       1.04548    1.18606    0.88136   1.00
C6       0.98542    1.30942    0.86808   1.00
H2       1.05725    1.17292    0.90794   1.00
H2       0.96581    1.32383    0.88870   1.00
C6       1.04713    1.15459    0.84829   1.00
C6       0.99483    1.33911    0.83465   1.00
H2       1.06577    1.20949    0.87389   1.00
H2       0.96844    1.28546    0.85568   1.00
C6       1.02393    1.11735    0.85946   1.00
C6       1.01349    1.37708    0.85076   1.00
C6       1.03142    1.17074    0.80910   1.00
C6       1.02222    1.32107    0.80354   1.00
C6       1.09034    1.14245    0.84208   1.00
C6       0.95604    1.35054    0.81419   1.00
H2       1.03391    1.10558    0.88735   1.00
H2       0.99514    1.39020    0.87328   1.00
H2       0.99282    1.12330    0.86194   1.00
H2       1.04208    1.37154    0.86347   1.00
H2       1.02748    1.09459    0.83747   1.00
H2       1.01743    1.39863    0.82765   1.00
H2       1.03527    1.14955    0.78563   1.00
H2       1.02634    1.34098    0.77901   1.00
H2       1.00035    1.17725    0.81109   1.00
H2       1.05092    1.31494    0.81580   1.00
H2       1.04672    1.19745    0.80096   1.00
H2       1.01014    1.29385    0.79230   1.00
H2       1.10275    1.13042    0.86886   1.00
H2       0.93575    1.36383    0.83485   1.00
H2       1.09298    1.12025    0.81937   1.00
H2       0.96107    1.37149    0.79072   1.00
H2       1.10811    1.16739    0.83334   1.00
H2       0.94183    1.32502    0.80149   1.00
C4       0.76975    0.99990    1.00479   1.00
C4       0.72809    0.99863    1.00568   1.00
C3       0.79103    1.03547    1.00801   1.00
C3       0.70496    1.03218    1.01395   1.00
C3       0.79146    0.96452    1.00047   1.00
C3       0.70830    0.96267    0.99816   1.00
C2       0.85405    1.00230    1.00491   1.00
C2       0.64378    0.99654    1.00562   1.00
C3       0.83189    1.03670    1.00828   1.00
C3       0.66409    1.03129    1.01374   1.00
C3       0.83304    0.96700    1.00109   1.00
C3       0.66664    0.96305    0.99801   1.00
H1       0.77763    1.06188    1.00990   1.00
H1       0.71694    1.05844    1.02081   1.00
C5       0.77165    0.92799    0.99546   1.00
C5       0.73002    0.92757    0.99127   1.00
H1       0.84549    1.06328    1.01085   1.00
H1       0.64909    1.05653    1.01978   1.00
H1       0.84948    0.94245    0.99837   1.00
H1       0.65152    0.93812    0.99251   1.00
C6       0.79485    0.89039    0.99510   1.00
C6       0.70881    0.89071    0.97925   1.00
H2       0.81655    0.89135    1.01833   1.00
H2       0.68690    0.89800    0.95740   1.00
H2       0.77714    0.86560    1.00391   1.00
H2       0.72772    0.87106    0.96306   1.00
C6       0.81394    0.88136    0.95452   1.00
C6       0.69058    0.86808    1.01458   1.00
H2       0.82708    0.90794    0.94275   1.00
H2       0.67617    0.88870    1.03419   1.00
C6       0.84541    0.84829    0.95287   1.00
C6       0.66089    0.83465    1.00517   1.00
H2       0.79051    0.87389    0.93423   1.00
H2       0.71454    0.85568    1.03156   1.00
C6       0.88265    0.85946    0.97607   1.00
C6       0.62292    0.85076    0.98651   1.00
C6       0.82926    0.80910    0.96858   1.00
C6       0.67893    0.80354    0.97778   1.00
C6       0.85755    0.84208    0.90966   1.00
C6       0.64946    0.81419    1.04396   1.00
H2       0.89442    0.88735    0.96609   1.00
H2       0.60980    0.87328    1.00486   1.00
H2       0.87670    0.86194    1.00718   1.00
H2       0.62846    0.86347    0.95792   1.00
H2       0.90541    0.83747    0.97252   1.00
H2       0.60137    0.82765    0.98257   1.00
H2       0.85045    0.78563    0.96473   1.00
H2       0.65902    0.77901    0.97366   1.00
H2       0.82275    0.81109    0.99965   1.00
H2       0.68506    0.81580    0.94908   1.00
H2       0.80255    0.80096    0.95328   1.00
H2       0.70615    0.79230    0.98986   1.00
H2       0.86958    0.86886    0.89725   1.00
H2       0.63617    0.83485    1.06425   1.00
H2       0.87975    0.81937    0.90702   1.00
H2       0.62851    0.79072    1.03893   1.00
H2       0.83261    0.83334    0.89189   1.00
H2       0.67498    0.80149    1.05817   1.00
C4       1.23025    0.99990    0.99521   1.00
C4       1.27191    0.99863    0.99432   1.00
C3       1.20897    1.03547    0.99199   1.00
C3       1.29504    1.03218    0.98605   1.00
C3       1.20854    0.96452    0.99953   1.00
C3       1.29170    0.96267    1.00184   1.00
C2       1.14595    1.00230    0.99509   1.00
C2       1.35622    0.99654    0.99438   1.00
C3       1.16811    1.03670    0.99172   1.00
C3       1.33591    1.03129    0.98626   1.00
C3       1.16696    0.96700    0.99891   1.00
C3       1.33336    0.96305    1.00199   1.00
H1       1.22237    1.06188    0.99010   1.00
H1       1.28306    1.05844    0.97919   1.00
C5       1.22835    0.92799    1.00454   1.00
C5       1.26998    0.92757    1.00873   1.00
H1       1.15451    1.06328    0.98915   1.00
H1       1.35091    1.05653    0.98022   1.00
H1       1.15052    0.94245    1.00163   1.00
H1       1.34848    0.93812    1.00749   1.00
C6       1.20515    0.89039    1.00490   1.00
C6       1.29119    0.89071    1.02075   1.00
H2       1.18345    0.89135    0.98167   1.00
H2       1.31310    0.89800    1.04260   1.00
H2       1.22286    0.86560    0.99609   1.00
H2       1.27228    0.87106    1.03694   1.00
C6       1.18606    0.88136    1.04548   1.00
C6       1.30942    0.86808    0.98542   1.00
H2       1.17292    0.90794    1.05725   1.00
H2       1.32383    0.88870    0.96581   1.00
C6       1.15459    0.84829    1.04713   1.00
C6       1.33911    0.83465    0.99483   1.00
H2       1.20949    0.87389    1.06577   1.00
H2       1.28546    0.85568    0.96844   1.00
C6       1.11735    0.85946    1.02393   1.00
C6       1.37708    0.85076    1.01349   1.00
C6       1.17074    0.80910    1.03142   1.00
C6       1.32107    0.80354    1.02222   1.00
C6       1.14245    0.84208    1.09034   1.00
C6       1.35054    0.81419    0.95604   1.00
H2       1.10558    0.88735    1.03391   1.00
H2       1.39020    0.87328    0.99514   1.00
H2       1.12330    0.86194    0.99282   1.00
H2       1.37154    0.86347    1.04208   1.00
H2       1.09459    0.83747    1.02748   1.00
H2       1.39863    0.82765    1.01743   1.00
H2       1.14955    0.78563    1.03527   1.00
H2       1.34098    0.77901    1.02634   1.00
H2       1.17725    0.81109    1.00035   1.00
H2       1.31494    0.81580    1.05092   1.00
H2       1.19745    0.80096    1.04672   1.00
H2       1.29385    0.79230    1.01014   1.00
H2       1.13042    0.86886    1.10275   1.00
H2       1.36383    0.83485    0.93575   1.00
H2       1.12025    0.81937    1.09298   1.00
H2       1.37149    0.79072    0.96107   1.00
H2       1.16739    0.83334    1.10811   1.00
H2       1.32502    0.80149    0.94183   1.00
C4       1.00479    0.76975    0.99990   1.00
C4       1.00568    0.72809    0.99863   1.00
C3       1.00801    0.79103    1.03547   1.00
C3       1.01395    0.70496    1.03218   1.00
C3       1.00047    0.79146    0.96452   1.00
C3       0.99816    0.70830    0.96267   1.00
C2       1.00491    0.85405    1.00230   1.00
C2       1.00562    0.64378    0.99654   1.00
C3       1.00828    0.83189    1.03670   1.00
C3       1.01374    0.66409    1.03129   1.00
C3       1.00109    0.83304    0.96700   1.00
C3       0.99801    0.66664    0.96305   1.00
H1       1.00990    0.77763    1.06188   1.00
H1       1.02081    0.71694    1.05844   1.00
C5       0.99546    0.77165    0.92799   1.00
C5       0.99127    0.73002    0.92757   1.00
H1       1.01085    0.84549    1.06328   1.00
H1       1.01978    0.64909    1.05653   1.00
H1       0.99837    0.84948    0.94245   1.00
H1       0.99251    0.65152    0.93812   1.00
C6       0.99510    0.79485    0.89039   1.00
C6       0.97925    0.70881    0.89071   1.00
H2       1.01833    0.81655    0.89135   1.00
H2       0.95740    0.68690    0.89800   1.00
H2       1.00391    0.77714    0.86560   1.00
H2       0.96306    0.72772    0.87106   1.00
C6       0.95452    0.81394    0.88136   1.00
C6       1.01458    0.69058    0.86808   1.00
H2       0.94275    0.82708    0.90794   1.00
H2       1.03419    0.67617    0.88870   1.00
C6       0.95287    0.84541    0.84829   1.00
C6       1.00517    0.66089    0.83465   1.00
H2       0.93423    0.79051    0.87389   1.00
H2       1.03156    0.71454    0.85568   1.00
C6       0.97607    0.88265    0.85946   1.00
C6       0.98651    0.62292    0.85076   1.00
C6       0.96858    0.82926    0.80910   1.00
C6       0.97778    0.67893    0.80354   1.00
C6       0.90966    0.85755    0.84208   1.00
C6       1.04396    0.64946    0.81419   1.00
H2       0.96609    0.89442    0.88735   1.00
H2       1.00486    0.60980    0.87328   1.00
H2       1.00718    0.87670    0.86194   1.00
H2       0.95792    0.62846    0.86347   1.00
H2       0.97252    0.90541    0.83747   1.00
H2       0.98257    0.60137    0.82765   1.00
H2       0.96473    0.85045    0.78563   1.00
H2       0.97366    0.65902    0.77901   1.00
H2       0.99965    0.82275    0.81109   1.00
H2       0.94908    0.68506    0.81580   1.00
H2       0.95328    0.80255    0.80096   1.00
H2       0.98986    0.70615    0.79230   1.00
H2       0.89725    0.86958    0.86886   1.00
H2       1.06425    0.63617    0.83485   1.00
H2       0.90702    0.87975    0.81937   1.00
H2       1.03893    0.62851    0.79072   1.00
H2       0.89189    0.83261    0.83334   1.00
H2       1.05817    0.67498    0.80149   1.00
C4       0.99990    1.00479    0.76975   1.00
C4       0.99863    1.00568    0.72809   1.00
C3       1.03547    1.00801    0.79103   1.00
C3       1.03218    1.01395    0.70496   1.00
C3       0.96452    1.00047    0.79146   1.00
C3       0.96267    0.99816    0.70830   1.00
C2       1.00230    1.00491    0.85405   1.00
C2       0.99654    1.00562    0.64378   1.00
C3       1.03670    1.00828    0.83189   1.00
C3       1.03129    1.01374    0.66409   1.00
C3       0.96700    1.00109    0.83304   1.00
C3       0.96305    0.99801    0.66664   1.00
H1       1.06188    1.00990    0.77763   1.00
H1       1.05844    1.02081    0.71694   1.00
C5       0.92799    0.99546    0.77165   1.00
C5       0.92757    0.99127    0.73002   1.00
H1       1.06328    1.01085    0.84549   1.00
H1       1.05653    1.01978    0.64909   1.00
H1       0.94245    0.99837    0.84948   1.00
H1       0.93812    0.99251    0.65152   1.00
C6       0.89039    0.99510    0.79485   1.00
C6       0.89071    0.97925    0.70881   1.00
H2       0.89135    1.01833    0.81655   1.00
H2       0.89800    0.95740    0.68690   1.00
H2       0.86560    1.00391    0.77714   1.00
H2       0.87106    0.96306    0.72772   1.00
C6       0.88136    0.95452    0.81394   1.00
C6       0.86808    1.01458    0.69058   1.00
H2       0.90794    0.94275    0.82708   1.00
H2       0.88870    1.03419    0.67617   1.00
C6       0.84829    0.95287    0.84541   1.00
C6       0.83465    1.00517    0.66089   1.00
H2       0.87389    0.93423    0.79051   1.00
H2       0.85568    1.03156    0.71454   1.00
C6       0.85946    0.97607    0.88265   1.00
C6       0.85076    0.98651    0.62292   1.00
C6       0.80910    0.96858    0.82926   1.00
C6       0.80354    0.97778    0.67893   1.00
C6       0.84208    0.90966    0.85755   1.00
C6       0.81419    1.04396    0.64946   1.00
H2       0.88735    0.96609    0.89442   1.00
H2       0.87328    1.00486    0.60980   1.00
H2       0.86194    1.00718    0.87670   1.00
H2       0.86347    0.95792    0.62846   1.00
H2       0.83747    0.97252    0.90541   1.00
H2       0.82765    0.98257    0.60137   1.00
H2       0.78563    0.96473    0.85045   1.00
H2       0.77901    0.97366    0.65902   1.00
H2       0.81109    0.99965    0.82275   1.00
H2       0.81580    0.94908    0.68506   1.00
H2       0.80096    0.95328    0.80255   1.00
H2       0.79230    0.98986    0.70615   1.00
H2       0.86886    0.89725    0.86958   1.00
H2       0.83485    1.06425    0.63617   1.00
H2       0.81937    0.90702    0.87975   1.00
H2       0.79072    1.03893    0.62851   1.00
H2       0.83334    0.89189    0.83261   1.00
H2       0.80149    1.05817    0.67498   1.00
C4       0.49990    0.49521    1.23025   1.00
C4       0.49863    0.49432    1.27191   1.00
C3       0.53547    0.49199    1.20897   1.00
C3       0.53218    0.48605    1.29504   1.00
C3       0.46452    0.49953    1.20854   1.00
C3       0.46267    0.50184    1.29170   1.00
C2       0.50230    0.49509    1.14595   1.00
C2       0.49654    0.49438    1.35622   1.00
C3       0.53670    0.49172    1.16811   1.00
C3       0.53129    0.48626    1.33591   1.00
C3       0.46700    0.49891    1.16696   1.00
C3       0.46305    0.50199    1.33336   1.00
H1       0.56188    0.49010    1.22237   1.00
H1       0.55844    0.47919    1.28306   1.00
C5       0.42799    0.50454    1.22835   1.00
C5       0.42757    0.50873    1.26998   1.00
H1       0.56328    0.48915    1.15451   1.00
H1       0.55653    0.48022    1.35091   1.00
H1       0.44245    0.50163    1.15052   1.00
H1       0.43812    0.50749    1.34848   1.00
C6       0.39039    0.50490    1.20515   1.00
C6       0.39071    0.52075    1.29119   1.00
H2       0.39135    0.48167    1.18345   1.00
H2       0.39800    0.54260    1.31310   1.00
H2       0.36560    0.49609    1.22286   1.00
H2       0.37106    0.53694    1.27228   1.00
C6       0.38136    0.54548    1.18606   1.00
C6       0.36808    0.48542    1.30942   1.00
H2       0.40794    0.55725    1.17292   1.00
H2       0.38870    0.46581    1.32383   1.00
C6       0.34829    0.54713    1.15459   1.00
C6       0.33465    0.49483    1.33911   1.00
H2       0.37389    0.56577    1.20949   1.00
H2       0.35568    0.46844    1.28546   1.00
C6       0.35946    0.52393    1.11735   1.00
C6       0.35076    0.51349    1.37708   1.00
C6       0.30910    0.53142    1.17074   1.00
C6       0.30354    0.52222    1.32107   1.00
C6       0.34208    0.59034    1.14245   1.00
C6       0.31419    0.45604    1.35054   1.00
H2       0.38735    0.53391    1.10558   1.00
H2       0.37328    0.49514    1.39020   1.00
H2       0.36194    0.49282    1.12330   1.00
H2       0.36347    0.54208    1.37154   1.00
H2       0.33747    0.52748    1.09459   1.00
H2       0.32765    0.51743    1.39863   1.00
H2       0.28563    0.53527    1.14955   1.00
H2       0.27901    0.52634    1.34098   1.00
H2       0.31109    0.50035    1.17725   1.00
H2       0.31580    0.55092    1.31494   1.00
H2       0.30096    0.54672    1.19745   1.00
H2       0.29230    0.51014    1.29385   1.00
H2       0.36886    0.60275    1.13042   1.00
H2       0.33485    0.43575    1.36383   1.00
H2       0.31937    0.59298    1.12025   1.00
H2       0.29072    0.46107    1.37149   1.00
H2       0.33334    0.60811    1.16739   1.00
H2       0.30149    0.44183    1.32502   1.00
C4       0.49521    0.73025    0.99990   1.00
C4       0.49432    0.77191    0.99863   1.00
C3       0.49199    0.70897    1.03547   1.00
C3       0.48605    0.79504    1.03218   1.00
C3       0.49953    0.70854    0.96452   1.00
C3       0.50184    0.79170    0.96267   1.00
C2       0.49509    0.64595    1.00230   1.00
C2       0.49438    0.85622    0.99654   1.00
C3       0.49172    0.66811    1.03670   1.00
C3       0.48626    0.83591    1.03129   1.00
C3       0.49891    0.66696    0.96700   1.00
C3       0.50199    0.83336    0.96305   1.00
H1       0.49010    0.72237    1.06188   1.00
H1       0.47919    0.78306    1.05844   1.00
C5       0.50454    0.72835    0.92799   1.00
C5       0.50873    0.76998    0.92757   1.00
H1       0.48915    0.65451    1.06328   1.00
H1       0.48022    0.85091    1.05653   1.00
H1       0.50163    0.65052    0.94245   1.00
H1       0.50749    0.84848    0.93812   1.00
C6       0.50490    0.70515    0.89039   1.00
C6       0.52075    0.79119    0.89071   1.00
H2       0.48167    0.68345    0.89135   1.00
H2       0.54260    0.81310    0.89800   1.00
H2       0.49609    0.72286    0.86560   1.00
H2       0.53694    0.77228    0.87106   1.00
C6       0.54548    0.68606    0.88136   1.00
C6       0.48542    0.80942    0.86808   1.00
H2       0.55725    0.67292    0.90794   1.00
H2       0.46581    0.82383    0.88870   1.00
C6       0.54713    0.65459    0.84829   1.00
C6       0.49483    0.83911    0.83465   1.00
H2       0.56577    0.70949    0.87389   1.00
H2       0.46844    0.78546    0.85568   1.00
C6       0.52393    0.61735    0.85946   1.00
C6       0.51349    0.87708    0.85076   1.00
C6       0.53142    0.67074    0.80910   1.00
C6       0.52222    0.82107    0.80354   1.00
C6       0.59034    0.64245    0.84208   1.00
C6       0.45604    0.85054    0.81419   1.00
H2       0.53391    0.60558    0.88735   1.00
H2       0.49514    0.89020    0.87328   1.00
H2       0.49282    0.62330    0.86194   1.00
H2       0.54208    0.87154    0.86347   1.00
H2       0.52748    0.59459    0.83747   1.00
H2       0.51743    0.89863    0.82765   1.00
H2       0.53527    0.64955    0.78563   1.00
H2       0.52634    0.84098    0.77901   1.00
H2       0.50035    0.67725    0.81109   1.00
H2       0.55092    0.81494    0.81580   1.00
H2       0.54672    0.69745    0.80096   1.00
H2       0.51014    0.79385    0.79230   1.00
H2       0.60275    0.63042    0.86886   1.00
H2       0.43575    0.86383    0.83485   1.00
H2       0.59298    0.62025    0.81937   1.00
H2       0.46107    0.87149    0.79072   1.00
H2       0.60811    0.66739    0.83334   1.00
H2       0.44183    0.82502    0.80149   1.00
C4       0.26975    0.49990    1.00479   1.00
C4       0.22809    0.49863    1.00568   1.00
C3       0.29103    0.53547    1.00801   1.00
C3       0.20496    0.53218    1.01395   1.00
C3       0.29146    0.46452    1.00047   1.00
C3       0.20830    0.46267    0.99816   1.00
C2       0.35405    0.50230    1.00491   1.00
C2       0.14378    0.49654    1.00562   1.00
C3       0.33189    0.53670    1.00828   1.00
C3       0.16409    0.53129    1.01374   1.00
C3       0.33304    0.46700    1.00109   1.00
C3       0.16664    0.46305    0.99801   1.00
H1       0.27763    0.56188    1.00990   1.00
H1       0.21694    0.55844    1.02081   1.00
C5       0.27165    0.42799    0.99546   1.00
C5       0.23002    0.42757    0.99127   1.00
H1       0.34549    0.56328    1.01085   1.00
H1       0.14909    0.55653    1.01978   1.00
H1       0.34948    0.44245    0.99837   1.00
H1       0.15152    0.43812    0.99251   1.00
C6       0.29485    0.39039    0.99510   1.00
C6       0.20881    0.39071    0.97925   1.00
H2       0.31655    0.39135    1.01833   1.00
H2       0.18690    0.39800    0.95740   1.00
H2       0.27714    0.36560    1.00391   1.00
H2       0.22772    0.37106    0.96306   1.00
C6       0.31394    0.38136    0.95452   1.00
C6       0.19058    0.36808    1.01458   1.00
H2       0.32708    0.40794    0.94275   1.00
H2       0.17617    0.38870    1.03419   1.00
C6       0.34541    0.34829    0.95287   1.00
C6       0.16089    0.33465    1.00517   1.00
H2       0.29051    0.37389    0.93423   1.00
H2       0.21454    0.35568    1.03156   1.00
C6       0.38265    0.35946    0.97607   1.00
C6       0.12292    0.35076    0.98651   1.00
C6       0.32926    0.30910    0.96858   1.00
C6       0.17893    0.30354    0.97778   1.00
C6       0.35755    0.34208    0.90966   1.00
C6       0.14946    0.31419    1.04396   1.00
H2       0.39442    0.38735    0.96609   1.00
H2       0.10980    0.37328    1.00486   1.00
H2       0.37670    0.36194    1.00718   1.00
H2       0.12846    0.36347    0.95792   1.00
H2       0.40541    0.33747    0.97252   1.00
H2       0.10137    0.32765    0.98257   1.00
H2       0.35045    0.28563    0.96473   1.00
H2       0.15902    0.27901    0.97366   1.00
H2       0.32275    0.31109    0.99965   1.00
H2       0.18506    0.31580    0.94908   1.00
H2       0.30255    0.30096    0.95328   1.00
H2       0.20615    0.29230    0.98986   1.00
H2       0.36958    0.36886    0.89725   1.00
H2       0.13617    0.33485    1.06425   1.00
H2       0.37975    0.31937    0.90702   1.00
H2       0.12851    0.29072    1.03893   1.00
H2       0.33261    0.33334    0.89189   1.00
H2       0.17498    0.30149    1.05817   1.00
C4       0.73025    0.49990    0.99521   1.00
C4       0.77191    0.49863    0.99432   1.00
C3       0.70897    0.53547    0.99199   1.00
C3       0.79504    0.53218    0.98605   1.00
C3       0.70854    0.46452    0.99953   1.00
C3       0.79170    0.46267    1.00184   1.00
C2       0.64595    0.50230    0.99509   1.00
C2       0.85622    0.49654    0.99438   1.00
C3       0.66811    0.53670    0.99172   1.00
C3       0.83591    0.53129    0.98626   1.00
C3       0.66696    0.46700    0.99891   1.00
C3       0.83336    0.46305    1.00199   1.00
H1       0.72237    0.56188    0.99010   1.00
H1       0.78306    0.55844    0.97919   1.00
C5       0.72835    0.42799    1.00454   1.00
C5       0.76998    0.42757    1.00873   1.00
H1       0.65451    0.56328    0.98915   1.00
H1       0.85091    0.55653    0.98022   1.00
H1       0.65052    0.44245    1.00163   1.00
H1       0.84848    0.43812    1.00749   1.00
C6       0.70515    0.39039    1.00490   1.00
C6       0.79119    0.39071    1.02075   1.00
H2       0.68345    0.39135    0.98167   1.00
H2       0.81310    0.39800    1.04260   1.00
H2       0.72286    0.36560    0.99609   1.00
H2       0.77228    0.37106    1.03694   1.00
C6       0.68606    0.38136    1.04548   1.00
C6       0.80942    0.36808    0.98542   1.00
H2       0.67292    0.40794    1.05725   1.00
H2       0.82383    0.38870    0.96581   1.00
C6       0.65459    0.34829    1.04713   1.00
C6       0.83911    0.33465    0.99483   1.00
H2       0.70949    0.37389    1.06577   1.00
H2       0.78546    0.35568    0.96844   1.00
C6       0.61735    0.35946    1.02393   1.00
C6       0.87708    0.35076    1.01349   1.00
C6       0.67074    0.30910    1.03142   1.00
C6       0.82107    0.30354    1.02222   1.00
C6       0.64245    0.34208    1.09034   1.00
C6       0.85054    0.31419    0.95604   1.00
H2       0.60558    0.38735    1.03391   1.00
H2       0.89020    0.37328    0.99514   1.00
H2       0.62330    0.36194    0.99282   1.00
H2       0.87154    0.36347    1.04208   1.00
H2       0.59459    0.33747    1.02748   1.00
H2       0.89863    0.32765    1.01743   1.00
H2       0.64955    0.28563    1.03527   1.00
H2       0.84098    0.27901    1.02634   1.00
H2       0.67725    0.31109    1.00035   1.00
H2       0.81494    0.31580    1.05092   1.00
H2       0.69745    0.30096    1.04672   1.00
H2       0.79385    0.29230    1.01014   1.00
H2       0.63042    0.36886    1.10275   1.00
H2       0.86383    0.33485    0.93575   1.00
H2       0.62025    0.31937    1.09298   1.00
H2       0.87149    0.29072    0.96107   1.00
H2       0.66739    0.33334    1.10811   1.00
H2       0.82502    0.30149    0.94183   1.00
C4       0.50479    0.26975    0.99990   1.00
C4       0.50568    0.22809    0.99863   1.00
C3       0.50801    0.29103    1.03547   1.00
C3       0.51395    0.20496    1.03218   1.00
C3       0.50047    0.29146    0.96452   1.00
C3       0.49816    0.20830    0.96267   1.00
C2       0.50491    0.35405    1.00230   1.00
C2       0.50562    0.14378    0.99654   1.00
C3       0.50828    0.33189    1.03670   1.00
C3       0.51374    0.16409    1.03129   1.00
C3       0.50109    0.33304    0.96700   1.00
C3       0.49801    0.16664    0.96305   1.00
H1       0.50990    0.27763    1.06188   1.00
H1       0.52081    0.21694    1.05844   1.00
C5       0.49546    0.27165    0.92799   1.00
C5       0.49127    0.23002    0.92757   1.00
H1       0.51085    0.34549    1.06328   1.00
H1       0.51978    0.14909    1.05653   1.00
H1       0.49837    0.34948    0.94245   1.00
H1       0.49251    0.15152    0.93812   1.00
C6       0.49510    0.29485    0.89039   1.00
C6       0.47925    0.20881    0.89071   1.00
H2       0.51833    0.31655    0.89135   1.00
H2       0.45740    0.18690    0.89800   1.00
H2       0.50391    0.27714    0.86560   1.00
H2       0.46306    0.22772    0.87106   1.00
C6       0.45452    0.31394    0.88136   1.00
C6       0.51458    0.19058    0.86808   1.00
H2       0.44275    0.32708    0.90794   1.00
H2       0.53419    0.17617    0.88870   1.00
C6       0.45287    0.34541    0.84829   1.00
C6       0.50517    0.16089    0.83465   1.00
H2       0.43423    0.29051    0.87389   1.00
H2       0.53156    0.21454    0.85568   1.00
C6       0.47607    0.38265    0.85946   1.00
C6       0.48651    0.12292    0.85076   1.00
C6       0.46858    0.32926    0.80910   1.00
C6       0.47778    0.17893    0.80354   1.00
C6       0.40966    0.35755    0.84208   1.00
C6       0.54396    0.14946    0.81419   1.00
H2       0.46609    0.39442    0.88735   1.00
H2       0.50486    0.10980    0.87328   1.00
H2       0.50718    0.37670    0.86194   1.00
H2       0.45792    0.12846    0.86347   1.00
H2       0.47252    0.40541    0.83747   1.00
H2       0.48257    0.10137    0.82765   1.00
H2       0.46473    0.35045    0.78563   1.00
H2       0.47366    0.15902    0.77901   1.00
H2       0.49965    0.32275    0.81109   1.00
H2       0.44908    0.18506    0.81580   1.00
H2       0.45328    0.30255    0.80096   1.00
H2       0.48986    0.20615    0.79230   1.00
H2       0.39725    0.36958    0.86886   1.00
H2       0.56425    0.13617    0.83485   1.00
H2       0.40702    0.37975    0.81937   1.00
H2       0.53893    0.12851    0.79072   1.00
H2       0.39189    0.33261    0.83334   1.00
H2       0.55817    0.17498    0.80149   1.00
C4       0.49990    0.50479    0.76975   1.00
C4       0.49863    0.50568    0.72809   1.00
C3       0.53547    0.50801    0.79103   1.00
C3       0.53218    0.51395    0.70496   1.00
C3       0.46452    0.50047    0.79146   1.00
C3       0.46267    0.49816    0.70830   1.00
C2       0.50230    0.50491    0.85405   1.00
C2       0.49654    0.50562    0.64378   1.00
C3       0.53670    0.50828    0.83189   1.00
C3       0.53129    0.51374    0.66409   1.00
C3       0.46700    0.50109    0.83304   1.00
C3       0.46305    0.49801    0.66664   1.00
H1       0.56188    0.50990    0.77763   1.00
H1       0.55844    0.52081    0.71694   1.00
C5       0.42799    0.49546    0.77165   1.00
C5       0.42757    0.49127    0.73002   1.00
H1       0.56328    0.51085    0.84549   1.00
H1       0.55653    0.51978    0.64909   1.00
H1       0.44245    0.49837    0.84948   1.00
H1       0.43812    0.49251    0.65152   1.00
C6       0.39039    0.49510    0.79485   1.00
C6       0.39071    0.47925    0.70881   1.00
H2       0.39135    0.51833    0.81655   1.00
H2       0.39800    0.45740    0.68690   1.00
H2       0.36560    0.50391    0.77714   1.00
H2       0.37106    0.46306    0.72772   1.00
C6       0.38136    0.45452    0.81394   1.00
C6       0.36808    0.51458    0.69058   1.00
H2       0.40794    0.44275    0.82708   1.00
H2       0.38870    0.53419    0.67617   1.00
C6       0.34829    0.45287    0.84541   1.00
C6       0.33465    0.50517    0.66089   1.00
H2       0.37389    0.43423    0.79051   1.00
H2       0.35568    0.53156    0.71454   1.00
C6       0.35946    0.47607    0.88265   1.00
C6       0.35076    0.48651    0.62292   1.00
C6       0.30910    0.46858    0.82926   1.00
C6       0.30354    0.47778    0.67893   1.00
C6       0.34208    0.40966    0.85755   1.00
C6       0.31419    0.54396    0.64946   1.00
H2       0.38735    0.46609    0.89442   1.00
H2       0.37328    0.50486    0.60980   1.00
H2       0.36194    0.50718    0.87670   1.00
H2       0.36347    0.45792    0.62846   1.00
H2       0.33747    0.47252    0.90541   1.00
H2       0.32765    0.48257    0.60137   1.00
H2       0.28563    0.46473    0.85045   1.00
H2       0.27901    0.47366    0.65902   1.00
H2       0.31109    0.49965    0.82275   1.00
H2       0.31580    0.44908    0.68506   1.00
H2       0.30096    0.45328    0.80255   1.00
H2       0.29230    0.48986    0.70615   1.00
H2       0.36886    0.39725    0.86958   1.00
H2       0.33485    0.56425    0.63617   1.00
H2       0.31937    0.40702    0.87975   1.00
H2       0.29072    0.53893    0.62851   1.00
H2       0.33334    0.39189    0.83261   1.00
H2       0.30149    0.55817    0.67498   1.00
C4       0.49990    0.99521    0.73025   1.00
C4       0.49863    0.99432    0.77191   1.00
C3       0.53547    0.99199    0.70897   1.00
C3       0.53218    0.98605    0.79504   1.00
C3       0.46452    0.99953    0.70854   1.00
C3       0.46267    1.00184    0.79170   1.00
C2       0.50230    0.99509    0.64595   1.00
C2       0.49654    0.99438    0.85622   1.00
C3       0.53670    0.99172    0.66811   1.00
C3       0.53129    0.98626    0.83591   1.00
C3       0.46700    0.99891    0.66696   1.00
C3       0.46305    1.00199    0.83336   1.00
H1       0.56188    0.99010    0.72237   1.00
H1       0.55844    0.97919    0.78306   1.00
C5       0.42799    1.00454    0.72835   1.00
C5       0.42757    1.00873    0.76998   1.00
H1       0.56328    0.98915    0.65451   1.00
H1       0.55653    0.98022    0.85091   1.00
H1       0.44245    1.00163    0.65052   1.00
H1       0.43812    1.00749    0.84848   1.00
C6       0.39039    1.00490    0.70515   1.00
C6       0.39071    1.02075    0.79119   1.00
H2       0.39135    0.98167    0.68345   1.00
H2       0.39800    1.04260    0.81310   1.00
H2       0.36560    0.99609    0.72286   1.00
H2       0.37106    1.03694    0.77228   1.00
C6       0.38136    1.04548    0.68606   1.00
C6       0.36808    0.98542    0.80942   1.00
H2       0.40794    1.05725    0.67292   1.00
H2       0.38870    0.96581    0.82383   1.00
C6       0.34829    1.04713    0.65459   1.00
C6       0.33465    0.99483    0.83911   1.00
H2       0.37389    1.06577    0.70949   1.00
H2       0.35568    0.96844    0.78546   1.00
C6       0.35946    1.02393    0.61735   1.00
C6       0.35076    1.01349    0.87708   1.00
C6       0.30910    1.03142    0.67074   1.00
C6       0.30354    1.02222    0.82107   1.00
C6       0.34208    1.09034    0.64245   1.00
C6       0.31419    0.95604    0.85054   1.00
H2       0.38735    1.03391    0.60558   1.00
H2       0.37328    0.99514    0.89020   1.00
H2       0.36194    0.99282    0.62330   1.00
H2       0.36347    1.04208    0.87154   1.00
H2       0.33747    1.02748    0.59459   1.00
H2       0.32765    1.01743    0.89863   1.00
H2       0.28563    1.03527    0.64955   1.00
H2       0.27901    1.02634    0.84098   1.00
H2       0.31109    1.00035    0.67725   1.00
H2       0.31580    1.05092    0.81494   1.00
H2       0.30096    1.04672    0.69745   1.00
H2       0.29230    1.01014    0.79385   1.00
H2       0.36886    1.10275    0.63042   1.00
H2       0.33485    0.93575    0.86383   1.00
H2       0.31937    1.09298    0.62025   1.00
H2       0.29072    0.96107    0.87149   1.00
H2       0.33334    1.10811    0.66739   1.00
H2       0.30149    0.94183    0.82502   1.00
C4       0.49521    1.23025    0.49990   1.00
C4       0.49432    1.27191    0.49863   1.00
C3       0.49199    1.20897    0.53547   1.00
C3       0.48605    1.29504    0.53218   1.00
C3       0.49953    1.20854    0.46452   1.00
C3       0.50184    1.29170    0.46267   1.00
C2       0.49509    1.14595    0.50230   1.00
C2       0.49438    1.35622    0.49654   1.00
C3       0.49172    1.16811    0.53670   1.00
C3       0.48626    1.33591    0.53129   1.00
C3       0.49891    1.16696    0.46700   1.00
C3       0.50199    1.33336    0.46305   1.00
H1       0.49010    1.22237    0.56188   1.00
H1       0.47919    1.28306    0.55844   1.00
C5       0.50454    1.22835    0.42799   1.00
C5       0.50873    1.26998    0.42757   1.00
H1       0.48915    1.15451    0.56328   1.00
H1       0.48022    1.35091    0.55653   1.00
H1       0.50163    1.15052    0.44245   1.00
H1       0.50749    1.34848    0.43812   1.00
C6       0.50490    1.20515    0.39039   1.00
C6       0.52075    1.29119    0.39071   1.00
H2       0.48167    1.18345    0.39135   1.00
H2       0.54260    1.31310    0.39800   1.00
H2       0.49609    1.22286    0.36560   1.00
H2       0.53694    1.27228    0.37106   1.00
C6       0.54548    1.18606    0.38136   1.00
C6       0.48542    1.30942    0.36808   1.00
H2       0.55725    1.17292    0.40794   1.00
H2       0.46581    1.32383    0.38870   1.00
C6       0.54713    1.15459    0.34829   1.00
C6       0.49483    1.33911    0.33465   1.00
H2       0.56577    1.20949    0.37389   1.00
H2       0.46844    1.28546    0.35568   1.00
C6       0.52393    1.11735    0.35946   1.00
C6       0.51349    1.37708    0.35076   1.00
C6       0.53142    1.17074    0.30910   1.00
C6       0.52222    1.32107    0.30354   1.00
C6       0.59034    1.14245    0.34208   1.00
C6       0.45604    1.35054    0.31419   1.00
H2       0.53391    1.10558    0.38735   1.00
H2       0.49514    1.39020    0.37328   1.00
H2       0.49282    1.12330    0.36194   1.00
H2       0.54208    1.37154    0.36347   1.00
H2       0.52748    1.09459    0.33747   1.00
H2       0.51743    1.39863    0.32765   1.00
H2       0.53527    1.14955    0.28563   1.00
H2       0.52634    1.34098    0.27901   1.00
H2       0.50035    1.17725    0.31109   1.00
H2       0.55092    1.31494    0.31580   1.00
H2       0.54672    1.19745    0.30096   1.00
H2       0.51014    1.29385    0.29230   1.00
H2       0.60275    1.13042    0.36886   1.00
H2       0.43575    1.36383    0.33485   1.00
H2       0.59298    1.12025    0.31937   1.00
H2       0.46107    1.37149    0.29072   1.00
H2       0.60811    1.16739    0.33334   1.00
H2       0.44183    1.32502    0.30149   1.00
C4       0.26975    0.99990    0.50479   1.00
C4       0.22809    0.99863    0.50568   1.00
C3       0.29103    1.03547    0.50801   1.00
C3       0.20496    1.03218    0.51395   1.00
C3       0.29146    0.96452    0.50047   1.00
C3       0.20830    0.96267    0.49816   1.00
C2       0.35405    1.00230    0.50491   1.00
C2       0.14378    0.99654    0.50562   1.00
C3       0.33189    1.03670    0.50828   1.00
C3       0.16409    1.03129    0.51374   1.00
C3       0.33304    0.96700    0.50109   1.00
C3       0.16664    0.96305    0.49801   1.00
H1       0.27763    1.06188    0.50990   1.00
H1       0.21694    1.05844    0.52081   1.00
C5       0.27165    0.92799    0.49546   1.00
C5       0.23002    0.92757    0.49127   1.00
H1       0.34549    1.06328    0.51085   1.00
H1       0.14909    1.05653    0.51978   1.00
H1       0.34948    0.94245    0.49837   1.00
H1       0.15152    0.93812    0.49251   1.00
C6       0.29485    0.89039    0.49510   1.00
C6       0.20881    0.89071    0.47925   1.00
H2       0.31655    0.89135    0.51833   1.00
H2       0.18690    0.89800    0.45740   1.00
H2       0.27714    0.86560    0.50391   1.00
H2       0.22772    0.87106    0.46306   1.00
C6       0.31394    0.88136    0.45452   1.00
C6       0.19058    0.86808    0.51458   1.00
H2       0.32708    0.90794    0.44275   1.00
H2       0.17617    0.88870    0.53419   1.00
C6       0.34541    0.84829    0.45287   1.00
C6       0.16089    0.83465    0.50517   1.00
H2       0.29051    0.87389    0.43423   1.00
H2       0.21454    0.85568    0.53156   1.00
C6       0.38265    0.85946    0.47607   1.00
C6       0.12292    0.85076    0.48651   1.00
C6       0.32926    0.80910    0.46858   1.00
C6       0.17893    0.80354    0.47778   1.00
C6       0.35755    0.84208    0.40966   1.00
C6       0.14946    0.81419    0.54396   1.00
H2       0.39442    0.88735    0.46609   1.00
H2       0.10980    0.87328    0.50486   1.00
H2       0.37670    0.86194    0.50718   1.00
H2       0.12846    0.86347    0.45792   1.00
H2       0.40541    0.83747    0.47252   1.00
H2       0.10137    0.82765    0.48257   1.00
H2       0.35045    0.78563    0.46473   1.00
H2       0.15902    0.77901    0.47366   1.00
H2       0.32275    0.81109    0.49965   1.00
H2       0.18506    0.81580    0.44908   1.00
H2       0.30255    0.80096    0.45328   1.00
H2       0.20615    0.79230    0.48986   1.00
H2       0.36958    0.86886    0.39725   1.00
H2       0.13617    0.83485    0.56425   1.00
H2       0.37975    0.81937    0.40702   1.00
H2       0.12851    0.79072    0.53893   1.00
H2       0.33261    0.83334    0.39189   1.00
H2       0.17498    0.80149    0.55817   1.00
C4       0.73025    0.99990    0.49521   1.00
C4       0.77191    0.99863    0.49432   1.00
C3       0.70897    1.03547    0.49199   1.00
C3       0.79504    1.03218    0.48605   1.00
C3       0.70854    0.96452    0.49953   1.00
C3       0.79170    0.96267    0.50184   1.00
C2       0.64595    1.00230    0.49509   1.00
C2       0.85622    0.99654    0.49438   1.00
C3       0.66811    1.03670    0.49172   1.00
C3       0.83591    1.03129    0.48626   1.00
C3       0.66696    0.96700    0.49891   1.00
C3       0.83336    0.96305    0.50199   1.00
H1       0.72237    1.06188    0.49010   1.00
H1       0.78306    1.05844    0.47919   1.00
C5       0.72835    0.92799    0.50454   1.00
C5       0.76998    0.92757    0.50873   1.00
H1       0.65451    1.06328    0.48915   1.00
H1       0.85091    1.05653    0.48022   1.00
H1       0.65052    0.94245    0.50163   1.00
H1       0.84848    0.93812    0.50749   1.00
C6       0.70515    0.89039    0.50490   1.00
C6       0.79119    0.89071    0.52075   1.00
H2       0.68345    0.89135    0.48167   1.00
H2       0.81310    0.89800    0.54260   1.00
H2       0.72286    0.86560    0.49609   1.00
H2       0.77228    0.87106    0.53694   1.00
C6       0.68606    0.88136    0.54548   1.00
C6       0.80942    0.86808    0.48542   1.00
H2       0.67292    0.90794    0.55725   1.00
H2       0.82383    0.88870    0.46581   1.00
C6       0.65459    0.84829    0.54713   1.00
C6       0.83911    0.83465    0.49483   1.00
H2       0.70949    0.87389    0.56577   1.00
H2       0.78546    0.85568    0.46844   1.00
C6       0.61735    0.85946    0.52393   1.00
C6       0.87708    0.85076    0.51349   1.00
C6       0.67074    0.80910    0.53142   1.00
C6       0.82107    0.80354    0.52222   1.00
C6       0.64245    0.84208    0.59034   1.00
C6       0.85054    0.81419    0.45604   1.00
H2       0.60558    0.88735    0.53391   1.00
H2       0.89020    0.87328    0.49514   1.00
H2       0.62330    0.86194    0.49282   1.00
H2       0.87154    0.86347    0.54208   1.00
H2       0.59459    0.83747    0.52748   1.00
H2       0.89863    0.82765    0.51743   1.00
H2       0.64955    0.78563    0.53527   1.00
H2       0.84098    0.77901    0.52634   1.00
H2       0.67725    0.81109    0.50035   1.00
H2       0.81494    0.81580    0.55092   1.00
H2       0.69745    0.80096    0.54672   1.00
H2       0.79385    0.79230    0.51014   1.00
H2       0.63042    0.86886    0.60275   1.00
H2       0.86383    0.83485    0.43575   1.00
H2       0.62025    0.81937    0.59298   1.00
H2       0.87149    0.79072    0.46107   1.00
H2       0.66739    0.83334    0.60811   1.00
H2       0.82502    0.80149    0.44183   1.00
C4       0.50479    0.76975    0.49990   1.00
C4       0.50568    0.72809    0.49863   1.00
C3       0.50801    0.79103    0.53547   1.00
C3       0.51395    0.70496    0.53218   1.00
C3       0.50047    0.79146    0.46452   1.00
C3       0.49816    0.70830    0.46267   1.00
C2       0.50491    0.85405    0.50230   1.00
C2       0.50562    0.64378    0.49654   1.00
C3       0.50828    0.83189    0.53670   1.00
C3       0.51374    0.66409    0.53129   1.00
C3       0.50109    0.83304    0.46700   1.00
C3       0.49801    0.66664    0.46305   1.00
H1       0.50990    0.77763    0.56188   1.00
H1       0.52081    0.71694    0.55844   1.00
C5       0.49546    0.77165    0.42799   1.00
C5       0.49127    0.73002    0.42757   1.00
H1       0.51085    0.84549    0.56328   1.00
H1       0.51978    0.64909    0.55653   1.00
H1       0.49837    0.84948    0.44245   1.00
H1       0.49251    0.65152    0.43812   1.00
C6       0.49510    0.79485    0.39039   1.00
C6       0.47925    0.70881    0.39071   1.00
H2       0.51833    0.81655    0.39135   1.00
H2       0.45740    0.68690    0.39800   1.00
H2       0.50391    0.77714    0.36560   1.00
H2       0.46306    0.72772    0.37106   1.00
C6       0.45452    0.81394    0.38136   1.00
C6       0.51458    0.69058    0.36808   1.00
H2       0.44275    0.82708    0.40794   1.00
H2       0.53419    0.67617    0.38870   1.00
C6       0.45287    0.84541    0.34829   1.00
C6       0.50517    0.66089    0.33465   1.00
H2       0.43423    0.79051    0.37389   1.00
H2       0.53156    0.71454    0.35568   1.00
C6       0.47607    0.88265    0.35946   1.00
C6       0.48651    0.62292    0.35076   1.00
C6       0.46858    0.82926    0.30910   1.00
C6       0.47778    0.67893    0.30354   1.00
C6       0.40966    0.85755    0.34208   1.00
C6       0.54396    0.64946    0.31419   1.00
H2       0.46609    0.89442    0.38735   1.00
H2       0.50486    0.60980    0.37328   1.00
H2       0.50718    0.87670    0.36194   1.00
H2       0.45792    0.62846    0.36347   1.00
H2       0.47252    0.90541    0.33747   1.00
H2       0.48257    0.60137    0.32765   1.00
H2       0.46473    0.85045    0.28563   1.00
H2       0.47366    0.65902    0.27901   1.00
H2       0.49965    0.82275    0.31109   1.00
H2       0.44908    0.68506    0.31580   1.00
H2       0.45328    0.80255    0.30096   1.00
H2       0.48986    0.70615    0.29230   1.00
H2       0.39725    0.86958    0.36886   1.00
H2       0.56425    0.63617    0.33485   1.00
H2       0.40702    0.87975    0.31937   1.00
H2       0.53893    0.62851    0.29072   1.00
H2       0.39189    0.83261    0.33334   1.00
H2       0.55817    0.67498    0.30149   1.00
C4       0.49990    1.00479    0.26975   1.00
C4       0.49863    1.00568    0.22809   1.00
C3       0.53547    1.00801    0.29103   1.00
C3       0.53218    1.01395    0.20496   1.00
C3       0.46452    1.00047    0.29146   1.00
C3       0.46267    0.99816    0.20830   1.00
C2       0.50230    1.00491    0.35405   1.00
C2       0.49654    1.00562    0.14378   1.00
C3       0.53670    1.00828    0.33189   1.00
C3       0.53129    1.01374    0.16409   1.00
C3       0.46700    1.00109    0.33304   1.00
C3       0.46305    0.99801    0.16664   1.00
H1       0.56188    1.00990    0.27763   1.00
H1       0.55844    1.02081    0.21694   1.00
C5       0.42799    0.99546    0.27165   1.00
C5       0.42757    0.99127    0.23002   1.00
H1       0.56328    1.01085    0.34549   1.00
H1       0.55653    1.01978    0.14909   1.00
H1       0.44245    0.99837    0.34948   1.00
H1       0.43812    0.99251    0.15152   1.00
C6       0.39039    0.99510    0.29485   1.00
C6       0.39071    0.97925    0.20881   1.00
H2       0.39135    1.01833    0.31655   1.00
H2       0.39800    0.95740    0.18690   1.00
H2       0.36560    1.00391    0.27714   1.00
H2       0.37106    0.96306    0.22772   1.00
C6       0.38136    0.95452    0.31394   1.00
C6       0.36808    1.01458    0.19058   1.00
H2       0.40794    0.94275    0.32708   1.00
H2       0.38870    1.03419    0.17617   1.00
C6       0.34829    0.95287    0.34541   1.00
C6       0.33465    1.00517    0.16089   1.00
H2       0.37389    0.93423    0.29051   1.00
H2       0.35568    1.03156    0.21454   1.00
C6       0.35946    0.97607    0.38265   1.00
C6       0.35076    0.98651    0.12292   1.00
C6       0.30910    0.96858    0.32926   1.00
C6       0.30354    0.97778    0.17893   1.00
C6       0.34208    0.90966    0.35755   1.00
C6       0.31419    1.04396    0.14946   1.00
H2       0.38735    0.96609    0.39442   1.00
H2       0.37328    1.00486    0.10980   1.00
H2       0.36194    1.00718    0.37670   1.00
H2       0.36347    0.95792    0.12846   1.00
H2       0.33747    0.97252    0.40541   1.00
H2       0.32765    0.98257    0.10137   1.00
H2       0.28563    0.96473    0.35045   1.00
H2       0.27901    0.97366    0.15902   1.00
H2       0.31109    0.99965    0.32275   1.00
H2       0.31580    0.94908    0.18506   1.00
H2       0.30096    0.95328    0.30255   1.00
H2       0.29230    0.98986    0.20615   1.00
H2       0.36886    0.89725    0.36958   1.00
H2       0.33485    1.06425    0.13617   1.00
H2       0.31937    0.90702    0.37975   1.00
H2       0.29072    1.03893    0.12851   1.00
H2       0.33334    0.89189    0.33261   1.00
H2       0.30149    1.05817    0.17498   1.00
C4       0.99990    0.49521    0.73025   1.00
C4       0.99863    0.49432    0.77191   1.00
C3       1.03547    0.49199    0.70897   1.00
C3       1.03218    0.48605    0.79504   1.00
C3       0.96452    0.49953    0.70854   1.00
C3       0.96267    0.50184    0.79170   1.00
C2       1.00230    0.49509    0.64595   1.00
C2       0.99654    0.49438    0.85622   1.00
C3       1.03670    0.49172    0.66811   1.00
C3       1.03129    0.48626    0.83591   1.00
C3       0.96700    0.49891    0.66696   1.00
C3       0.96305    0.50199    0.83336   1.00
H1       1.06188    0.49010    0.72237   1.00
H1       1.05844    0.47919    0.78306   1.00
C5       0.92799    0.50454    0.72835   1.00
C5       0.92757    0.50873    0.76998   1.00
H1       1.06328    0.48915    0.65451   1.00
H1       1.05653    0.48022    0.85091   1.00
H1       0.94245    0.50163    0.65052   1.00
H1       0.93812    0.50749    0.84848   1.00
C6       0.89039    0.50490    0.70515   1.00
C6       0.89071    0.52075    0.79119   1.00
H2       0.89135    0.48167    0.68345   1.00
H2       0.89800    0.54260    0.81310   1.00
H2       0.86560    0.49609    0.72286   1.00
H2       0.87106    0.53694    0.77228   1.00
C6       0.88136    0.54548    0.68606   1.00
C6       0.86808    0.48542    0.80942   1.00
H2       0.90794    0.55725    0.67292   1.00
H2       0.88870    0.46581    0.82383   1.00
C6       0.84829    0.54713    0.65459   1.00
C6       0.83465    0.49483    0.83911   1.00
H2       0.87389    0.56577    0.70949   1.00
H2       0.85568    0.46844    0.78546   1.00
C6       0.85946    0.52393    0.61735   1.00
C6       0.85076    0.51349    0.87708   1.00
C6       0.80910    0.53142    0.67074   1.00
C6       0.80354    0.52222    0.82107   1.00
C6       0.84208    0.59034    0.64245   1.00
C6       0.81419    0.45604    0.85054   1.00
H2       0.88735    0.53391    0.60558   1.00
H2       0.87328    0.49514    0.89020   1.00
H2       0.86194    0.49282    0.62330   1.00
H2       0.86347    0.54208    0.87154   1.00
H2       0.83747    0.52748    0.59459   1.00
H2       0.82765    0.51743    0.89863   1.00
H2       0.78563    0.53527    0.64955   1.00
H2       0.77901    0.52634    0.84098   1.00
H2       0.81109    0.50035    0.67725   1.00
H2       0.81580    0.55092    0.81494   1.00
H2       0.80096    0.54672    0.69745   1.00
H2       0.79230    0.51014    0.79385   1.00
H2       0.86886    0.60275    0.63042   1.00
H2       0.83485    0.43575    0.86383   1.00
H2       0.81937    0.59298    0.62025   1.00
H2       0.79072    0.46107    0.87149   1.00
H2       0.83334    0.60811    0.66739   1.00
H2       0.80149    0.44183    0.82502   1.00
C4       0.99521    0.73025    0.49990   1.00
C4       0.99432    0.77191    0.49863   1.00
C3       0.99199    0.70897    0.53547   1.00
C3       0.98605    0.79504    0.53218   1.00
C3       0.99953    0.70854    0.46452   1.00
C3       1.00184    0.79170    0.46267   1.00
C2       0.99509    0.64595    0.50230   1.00
C2       0.99438    0.85622    0.49654   1.00
C3       0.99172    0.66811    0.53670   1.00
C3       0.98626    0.83591    0.53129   1.00
C3       0.99891    0.66696    0.46700   1.00
C3       1.00199    0.83336    0.46305   1.00
H1       0.99010    0.72237    0.56188   1.00
H1       0.97919    0.78306    0.55844   1.00
C5       1.00454    0.72835    0.42799   1.00
C5       1.00873    0.76998    0.42757   1.00
H1       0.98915    0.65451    0.56328   1.00
H1       0.98022    0.85091    0.55653   1.00
H1       1.00163    0.65052    0.44245   1.00
H1       1.00749    0.84848    0.43812   1.00
C6       1.00490    0.70515    0.39039   1.00
C6       1.02075    0.79119    0.39071   1.00
H2       0.98167    0.68345    0.39135   1.00
H2       1.04260    0.81310    0.39800   1.00
H2       0.99609    0.72286    0.36560   1.00
H2       1.03694    0.77228    0.37106   1.00
C6       1.04548    0.68606    0.38136   1.00
C6       0.98542    0.80942    0.36808   1.00
H2       1.05725    0.67292    0.40794   1.00
H2       0.96581    0.82383    0.38870   1.00
C6       1.04713    0.65459    0.34829   1.00
C6       0.99483    0.83911    0.33465   1.00
H2       1.06577    0.70949    0.37389   1.00
H2       0.96844    0.78546    0.35568   1.00
C6       1.02393    0.61735    0.35946   1.00
C6       1.01349    0.87708    0.35076   1.00
C6       1.03142    0.67074    0.30910   1.00
C6       1.02222    0.82107    0.30354   1.00
C6       1.09034    0.64245    0.34208   1.00
C6       0.95604    0.85054    0.31419   1.00
H2       1.03391    0.60558    0.38735   1.00
H2       0.99514    0.89020    0.37328   1.00
H2       0.99282    0.62330    0.36194   1.00
H2       1.04208    0.87154    0.36347   1.00
H2       1.02748    0.59459    0.33747   1.00
H2       1.01743    0.89863    0.32765   1.00
H2       1.03527    0.64955    0.28563   1.00
H2       1.02634    0.84098    0.27901   1.00
H2       1.00035    0.67725    0.31109   1.00
H2       1.05092    0.81494    0.31580   1.00
H2       1.04672    0.69745    0.30096   1.00
H2       1.01014    0.79385    0.29230   1.00
H2       1.10275    0.63042    0.36886   1.00
H2       0.93575    0.86383    0.33485   1.00
H2       1.09298    0.62025    0.31937   1.00
H2       0.96107    0.87149    0.29072   1.00
H2       1.10811    0.66739    0.33334   1.00
H2       0.94183    0.82502    0.30149   1.00
C4       0.76975    0.49990    0.50479   1.00
C4       0.72809    0.49863    0.50568   1.00
C3       0.79103    0.53547    0.50801   1.00
C3       0.70496    0.53218    0.51395   1.00
C3       0.79146    0.46452    0.50047   1.00
C3       0.70830    0.46267    0.49816   1.00
C2       0.85405    0.50230    0.50491   1.00
C2       0.64378    0.49654    0.50562   1.00
C3       0.83189    0.53670    0.50828   1.00
C3       0.66409    0.53129    0.51374   1.00
C3       0.83304    0.46700    0.50109   1.00
C3       0.66664    0.46305    0.49801   1.00
H1       0.77763    0.56188    0.50990   1.00
H1       0.71694    0.55844    0.52081   1.00
C5       0.77165    0.42799    0.49546   1.00
C5       0.73002    0.42757    0.49127   1.00
H1       0.84549    0.56328    0.51085   1.00
H1       0.64909    0.55653    0.51978   1.00
H1       0.84948    0.44245    0.49837   1.00
H1       0.65152    0.43812    0.49251   1.00
C6       0.79485    0.39039    0.49510   1.00
C6       0.70881    0.39071    0.47925   1.00
H2       0.81655    0.39135    0.51833   1.00
H2       0.68690    0.39800    0.45740   1.00
H2       0.77714    0.36560    0.50391   1.00
H2       0.72772    0.37106    0.46306   1.00
C6       0.81394    0.38136    0.45452   1.00
C6       0.69058    0.36808    0.51458   1.00
H2       0.82708    0.40794    0.44275   1.00
H2       0.67617    0.38870    0.53419   1.00
C6       0.84541    0.34829    0.45287   1.00
C6       0.66089    0.33465    0.50517   1.00
H2       0.79051    0.37389    0.43423   1.00
H2       0.71454    0.35568    0.53156   1.00
C6       0.88265    0.35946    0.47607   1.00
C6       0.62292    0.35076    0.48651   1.00
C6       0.82926    0.30910    0.46858   1.00
C6       0.67893    0.30354    0.47778   1.00
C6       0.85755    0.34208    0.40966   1.00
C6       0.64946    0.31419    0.54396   1.00
H2       0.89442    0.38735    0.46609   1.00
H2       0.60980    0.37328    0.50486   1.00
H2       0.87670    0.36194    0.50718   1.00
H2       0.62846    0.36347    0.45792   1.00
H2       0.90541    0.33747    0.47252   1.00
H2       0.60137    0.32765    0.48257   1.00
H2       0.85045    0.28563    0.46473   1.00
H2       0.65902    0.27901    0.47366   1.00
H2       0.82275    0.31109    0.49965   1.00
H2       0.68506    0.31580    0.44908   1.00
H2       0.80255    0.30096    0.45328   1.00
H2       0.70615    0.29230    0.48986   1.00
H2       0.86958    0.36886    0.39725   1.00
H2       0.63617    0.33485    0.56425   1.00
H2       0.87975    0.31937    0.40702   1.00
H2       0.62851    0.29072    0.53893   1.00
H2       0.83261    0.33334    0.39189   1.00
H2       0.67498    0.30149    0.55817   1.00
C4       1.23025    0.49990    0.49521   1.00
C4       1.27191    0.49863    0.49432   1.00
C3       1.20897    0.53547    0.49199   1.00
C3       1.29504    0.53218    0.48605   1.00
C3       1.20854    0.46452    0.49953   1.00
C3       1.29170    0.46267    0.50184   1.00
C2       1.14595    0.50230    0.49509   1.00
C2       1.35622    0.49654    0.49438   1.00
C3       1.16811    0.53670    0.49172   1.00
C3       1.33591    0.53129    0.48626   1.00
C3       1.16696    0.46700    0.49891   1.00
C3       1.33336    0.46305    0.50199   1.00
H1       1.22237    0.56188    0.49010   1.00
H1       1.28306    0.55844    0.47919   1.00
C5       1.22835    0.42799    0.50454   1.00
C5       1.26998    0.42757    0.50873   1.00
H1       1.15451    0.56328    0.48915   1.00
H1       1.35091    0.55653    0.48022   1.00
H1       1.15052    0.44245    0.50163   1.00
H1       1.34848    0.43812    0.50749   1.00
C6       1.20515    0.39039    0.50490   1.00
C6       1.29119    0.39071    0.52075   1.00
H2       1.18345    0.39135    0.48167   1.00
H2       1.31310    0.39800    0.54260   1.00
H2       1.22286    0.36560    0.49609   1.00
H2       1.27228    0.37106    0.53694   1.00
C6       1.18606    0.38136    0.54548   1.00
C6       1.30942    0.36808    0.48542   1.00
H2       1.17292    0.40794    0.55725   1.00
H2       1.32383    0.38870    0.46581   1.00
C6       1.15459    0.34829    0.54713   1.00
C6       1.33911    0.33465    0.49483   1.00
H2       1.20949    0.37389    0.56577   1.00
H2       1.28546    0.35568    0.46844   1.00
C6       1.11735    0.35946    0.52393   1.00
C6       1.37708    0.35076    0.51349   1.00
C6       1.17074    0.30910    0.53142   1.00
C6       1.32107    0.30354    0.52222   1.00
C6       1.14245    0.34208    0.59034   1.00
C6       1.35054    0.31419    0.45604   1.00
H2       1.10558    0.38735    0.53391   1.00
H2       1.39020    0.37328    0.49514   1.00
H2       1.12330    0.36194    0.49282   1.00
H2       1.37154    0.36347    0.54208   1.00
H2       1.09459    0.33747    0.52748   1.00
H2       1.39863    0.32765    0.51743   1.00
H2       1.14955    0.28563    0.53527   1.00
H2       1.34098    0.27901    0.52634   1.00
H2       1.17725    0.31109    0.50035   1.00
H2       1.31494    0.31580    0.55092   1.00
H2       1.19745    0.30096    0.54672   1.00
H2       1.29385    0.29230    0.51014   1.00
H2       1.13042    0.36886    0.60275   1.00
H2       1.36383    0.33485    0.43575   1.00
H2       1.12025    0.31937    0.59298   1.00
H2       1.37149    0.29072    0.46107   1.00
H2       1.16739    0.33334    0.60811   1.00
H2       1.32502    0.30149    0.44183   1.00
C4       1.00479    0.26975    0.49990   1.00
C4       1.00568    0.22809    0.49863   1.00
C3       1.00801    0.29103    0.53547   1.00
C3       1.01395    0.20496    0.53218   1.00
C3       1.00047    0.29146    0.46452   1.00
C3       0.99816    0.20830    0.46267   1.00
C2       1.00491    0.35405    0.50230   1.00
C2       1.00562    0.14378    0.49654   1.00
C3       1.00828    0.33189    0.53670   1.00
C3       1.01374    0.16409    0.53129   1.00
C3       1.00109    0.33304    0.46700   1.00
C3       0.99801    0.16664    0.46305   1.00
H1       1.00990    0.27763    0.56188   1.00
H1       1.02081    0.21694    0.55844   1.00
C5       0.99546    0.27165    0.42799   1.00
C5       0.99127    0.23002    0.42757   1.00
H1       1.01085    0.34549    0.56328   1.00
H1       1.01978    0.14909    0.55653   1.00
H1       0.99837    0.34948    0.44245   1.00
H1       0.99251    0.15152    0.43812   1.00
C6       0.99510    0.29485    0.39039   1.00
C6       0.97925    0.20881    0.39071   1.00
H2       1.01833    0.31655    0.39135   1.00
H2       0.95740    0.18690    0.39800   1.00
H2       1.00391    0.27714    0.36560   1.00
H2       0.96306    0.22772    0.37106   1.00
C6       0.95452    0.31394    0.38136   1.00
C6       1.01458    0.19058    0.36808   1.00
H2       0.94275    0.32708    0.40794   1.00
H2       1.03419    0.17617    0.38870   1.00
C6       0.95287    0.34541    0.34829   1.00
C6       1.00517    0.16089    0.33465   1.00
H2       0.93423    0.29051    0.37389   1.00
H2       1.03156    0.21454    0.35568   1.00
C6       0.97607    0.38265    0.35946   1.00
C6       0.98651    0.12292    0.35076   1.00
C6       0.96858    0.32926    0.30910   1.00
C6       0.97778    0.17893    0.30354   1.00
C6       0.90966    0.35755    0.34208   1.00
C6       1.04396    0.14946    0.31419   1.00
H2       0.96609    0.39442    0.38735   1.00
H2       1.00486    0.10980    0.37328   1.00
H2       1.00718    0.37670    0.36194   1.00
H2       0.95792    0.12846    0.36347   1.00
H2       0.97252    0.40541    0.33747   1.00
H2       0.98257    0.10137    0.32765   1.00
H2       0.96473    0.35045    0.28563   1.00
H2       0.97366    0.15902    0.27901   1.00
H2       0.99965    0.32275    0.31109   1.00
H2       0.94908    0.18506    0.31580   1.00
H2       0.95328    0.30255    0.30096   1.00
H2       0.98986    0.20615    0.29230   1.00
H2       0.89725    0.36958    0.36886   1.00
H2       1.06425    0.13617    0.33485   1.00
H2       0.90702    0.37975    0.31937   1.00
H2       1.03893    0.12851    0.29072   1.00
H2       0.89189    0.33261    0.33334   1.00
H2       1.05817    0.17498    0.30149   1.00
C4       0.99990    0.50479    0.26975   1.00
C4       0.99863    0.50568    0.22809   1.00
C3       1.03547    0.50801    0.29103   1.00
C3       1.03218    0.51395    0.20496   1.00
C3       0.96452    0.50047    0.29146   1.00
C3       0.96267    0.49816    0.20830   1.00
C2       1.00230    0.50491    0.35405   1.00
C2       0.99654    0.50562    0.14378   1.00
C3       1.03670    0.50828    0.33189   1.00
C3       1.03129    0.51374    0.16409   1.00
C3       0.96700    0.50109    0.33304   1.00
C3       0.96305    0.49801    0.16664   1.00
H1       1.06188    0.50990    0.27763   1.00
H1       1.05844    0.52081    0.21694   1.00
C5       0.92799    0.49546    0.27165   1.00
C5       0.92757    0.49127    0.23002   1.00
H1       1.06328    0.51085    0.34549   1.00
H1       1.05653    0.51978    0.14909   1.00
H1       0.94245    0.49837    0.34948   1.00
H1       0.93812    0.49251    0.15152   1.00
C6       0.89039    0.49510    0.29485   1.00
C6       0.89071    0.47925    0.20881   1.00
H2       0.89135    0.51833    0.31655   1.00
H2       0.89800    0.45740    0.18690   1.00
H2       0.86560    0.50391    0.27714   1.00
H2       0.87106    0.46306    0.22772   1.00
C6       0.88136    0.45452    0.31394   1.00
C6       0.86808    0.51458    0.19058   1.00
H2       0.90794    0.44275    0.32708   1.00
H2       0.88870    0.53419    0.17617   1.00
C6       0.84829    0.45287    0.34541   1.00
C6       0.83465    0.50517    0.16089   1.00
H2       0.87389    0.43423    0.29051   1.00
H2       0.85568    0.53156    0.21454   1.00
C6       0.85946    0.47607    0.38265   1.00
C6       0.85076    0.48651    0.12292   1.00
C6       0.80910    0.46858    0.32926   1.00
C6       0.80354    0.47778    0.17893   1.00
C6       0.84208    0.40966    0.35755   1.00
C6       0.81419    0.54396    0.14946   1.00
H2       0.88735    0.46609    0.39442   1.00
H2       0.87328    0.50486    0.10980   1.00
H2       0.86194    0.50718    0.37670   1.00
H2       0.86347    0.45792    0.12846   1.00
H2       0.83747    0.47252    0.40541   1.00
H2       0.82765    0.48257    0.10137   1.00
H2       0.78563    0.46473    0.35045   1.00
H2       0.77901    0.47366    0.15902   1.00
H2       0.81109    0.49965    0.32275   1.00
H2       0.81580    0.44908    0.18506   1.00
H2       0.80096    0.45328    0.30255   1.00
H2       0.79230    0.48986    0.20615   1.00
H2       0.86886    0.39725    0.36958   1.00
H2       0.83485    0.56425    0.13617   1.00
H2       0.81937    0.40702    0.37975   1.00
H2       0.79072    0.53893    0.12851   1.00
H2       0.83334    0.39189    0.33261   1.00
H2       0.80149    0.55817    0.17498   1.00
