data_IRMOF10_SG202_interpen_Ligand10lp_label_x.

_audit_creation_method             'generated by an auxiliary program of Tobunporous'

_symmetry_space_group_name_H-M     'P 1'
_symmetry_Int_Tables_number        1
_symmetry_cell_setting             triclinic

_cell_length_a                    34.2800
_cell_length_b                    34.2800
_cell_length_c                    34.2800
_cell_angle_alpha                 90.0000
_cell_angle_beta                  90.0000
_cell_angle_gamma                 90.0000

loop_
_atom_site_label
_atom_site_fract_x
_atom_site_fract_y
_atom_site_fract_z
_atom_site_occupancy
O1       0.75000    0.75000    0.75000   1.00
Zn1      0.71720    0.78280    0.78280   1.00
Zn1      0.78280    0.71720    0.78280   1.00
Zn1      0.78280    0.78280    0.71720   1.00
Zn1      0.71720    0.71720    0.71720   1.00
O2       0.72650    0.77350    0.83820   1.00
O2       0.72650    0.83820    0.77350   1.00
O2       0.66180    0.77350    0.77350   1.00
O2       0.77350    0.72650    0.83820   1.00
O2       0.83820    0.72650    0.77350   1.00
O2       0.77350    0.66180    0.77350   1.00
O2       0.77350    0.83820    0.72650   1.00
O2       0.83820    0.77350    0.72650   1.00
O2       0.77350    0.77350    0.66180   1.00
O2       0.66180    0.72650    0.72650   1.00
O2       0.72650    0.66180    0.72650   1.00
O2       0.72650    0.72650    0.66180   1.00
C1       0.75000    0.75000    0.85520   1.00
C1       0.75000    0.85520    0.75000   1.00
C1       0.64480    0.75000    0.75000   1.00
C1       0.85520    0.75000    0.75000   1.00
C1       0.75000    0.64480    0.75000   1.00
C1       0.75000    0.75000    0.64480   1.00
O1       0.25000    0.25000    0.75000   1.00
Zn1      0.21720    0.28280    0.78280   1.00
Zn1      0.28280    0.21720    0.78280   1.00
Zn1      0.28280    0.28280    0.71720   1.00
Zn1      0.21720    0.21720    0.71720   1.00
O2       0.22650    0.27350    0.83820   1.00
O2       0.22650    0.33820    0.77350   1.00
O2       0.16180    0.27350    0.77350   1.00
O2       0.27350    0.22650    0.83820   1.00
O2       0.33820    0.22650    0.77350   1.00
O2       0.27350    0.16180    0.77350   1.00
O2       0.27350    0.33820    0.72650   1.00
O2       0.33820    0.27350    0.72650   1.00
O2       0.27350    0.27350    0.66180   1.00
O2       0.16180    0.22650    0.72650   1.00
O2       0.22650    0.16180    0.72650   1.00
O2       0.22650    0.22650    0.66180   1.00
C1       0.25000    0.25000    0.85520   1.00
C1       0.25000    0.35520    0.75000   1.00
C1       0.14480    0.25000    0.75000   1.00
C1       0.35520    0.25000    0.75000   1.00
C1       0.25000    0.14480    0.75000   1.00
C1       0.25000    0.25000    0.64480   1.00
O1       0.25000    0.75000    0.25000   1.00
Zn1      0.21720    0.78280    0.28280   1.00
Zn1      0.28280    0.71720    0.28280   1.00
Zn1      0.28280    0.78280    0.21720   1.00
Zn1      0.21720    0.71720    0.21720   1.00
O2       0.22650    0.77350    0.33820   1.00
O2       0.22650    0.83820    0.27350   1.00
O2       0.16180    0.77350    0.27350   1.00
O2       0.27350    0.72650    0.33820   1.00
O2       0.33820    0.72650    0.27350   1.00
O2       0.27350    0.66180    0.27350   1.00
O2       0.27350    0.83820    0.22650   1.00
O2       0.33820    0.77350    0.22650   1.00
O2       0.27350    0.77350    0.16180   1.00
O2       0.16180    0.72650    0.22650   1.00
O2       0.22650    0.66180    0.22650   1.00
O2       0.22650    0.72650    0.16180   1.00
C1       0.25000    0.75000    0.35520   1.00
C1       0.25000    0.85520    0.25000   1.00
C1       0.14480    0.75000    0.25000   1.00
C1       0.35520    0.75000    0.25000   1.00
C1       0.25000    0.64480    0.25000   1.00
C1       0.25000    0.75000    0.14480   1.00
O1       0.75000    0.25000    0.25000   1.00
Zn1      0.71720    0.28280    0.28280   1.00
Zn1      0.78280    0.21720    0.28280   1.00
Zn1      0.78280    0.28280    0.21720   1.00
Zn1      0.71720    0.21720    0.21720   1.00
O2       0.72650    0.27350    0.33820   1.00
O2       0.72650    0.33820    0.27350   1.00
O2       0.66180    0.27350    0.27350   1.00
O2       0.77350    0.22650    0.33820   1.00
O2       0.83820    0.22650    0.27350   1.00
O2       0.77350    0.16180    0.27350   1.00
O2       0.77350    0.33820    0.22650   1.00
O2       0.83820    0.27350    0.22650   1.00
O2       0.77350    0.27350    0.16180   1.00
O2       0.66180    0.22650    0.22650   1.00
O2       0.72650    0.16180    0.22650   1.00
O2       0.72650    0.22650    0.16180   1.00
C1       0.75000    0.25000    0.35520   1.00
C1       0.75000    0.35520    0.25000   1.00
C1       0.64480    0.25000    0.25000   1.00
C1       0.85520    0.25000    0.25000   1.00
C1       0.75000    0.14480    0.25000   1.00
C1       0.75000    0.25000    0.14480   1.00
O1       0.25000    0.25000    0.25000   1.00
Zn1      0.28280    0.21720    0.21720   1.00
Zn1      0.21720    0.28280    0.21720   1.00
Zn1      0.21720    0.21720    0.28280   1.00
Zn1      0.28280    0.28280    0.28280   1.00
O2       0.27350    0.22650    0.16180   1.00
O2       0.27350    0.16180    0.22650   1.00
O2       0.33820    0.22650    0.22650   1.00
O2       0.22650    0.27350    0.16180   1.00
O2       0.16180    0.27350    0.22650   1.00
O2       0.22650    0.33820    0.22650   1.00
O2       0.22650    0.16180    0.27350   1.00
O2       0.16180    0.22650    0.27350   1.00
O2       0.22650    0.22650    0.33820   1.00
O2       0.33820    0.27350    0.27350   1.00
O2       0.27350    0.33820    0.27350   1.00
O2       0.27350    0.27350    0.33820   1.00
C1       0.25000    0.25000    0.14480   1.00
C1       0.25000    0.14480    0.25000   1.00
C1       0.35520    0.25000    0.25000   1.00
C1       0.14480    0.25000    0.25000   1.00
C1       0.25000    0.35520    0.25000   1.00
C1       0.25000    0.25000    0.35520   1.00
O1       0.75000    0.75000    0.25000   1.00
Zn1      0.78280    0.71720    0.21720   1.00
Zn1      0.71720    0.78280    0.21720   1.00
Zn1      0.71720    0.71720    0.28280   1.00
Zn1      0.78280    0.78280    0.28280   1.00
O2       0.77350    0.72650    0.16180   1.00
O2       0.77350    0.66180    0.22650   1.00
O2       0.83820    0.72650    0.22650   1.00
O2       0.72650    0.77350    0.16180   1.00
O2       0.66180    0.77350    0.22650   1.00
O2       0.72650    0.83820    0.22650   1.00
O2       0.72650    0.66180    0.27350   1.00
O2       0.66180    0.72650    0.27350   1.00
O2       0.72650    0.72650    0.33820   1.00
O2       0.83820    0.77350    0.27350   1.00
O2       0.77350    0.83820    0.27350   1.00
O2       0.77350    0.77350    0.33820   1.00
C1       0.75000    0.75000    0.14480   1.00
C1       0.75000    0.64480    0.25000   1.00
C1       0.85520    0.75000    0.25000   1.00
C1       0.64480    0.75000    0.25000   1.00
C1       0.75000    0.85520    0.25000   1.00
C1       0.75000    0.75000    0.35520   1.00
O1       0.75000    0.25000    0.75000   1.00
Zn1      0.78280    0.21720    0.71720   1.00
Zn1      0.71720    0.28280    0.71720   1.00
Zn1      0.71720    0.21720    0.78280   1.00
Zn1      0.78280    0.28280    0.78280   1.00
O2       0.77350    0.22650    0.66180   1.00
O2       0.77350    0.16180    0.72650   1.00
O2       0.83820    0.22650    0.72650   1.00
O2       0.72650    0.27350    0.66180   1.00
O2       0.66180    0.27350    0.72650   1.00
O2       0.72650    0.33820    0.72650   1.00
O2       0.72650    0.16180    0.77350   1.00
O2       0.66180    0.22650    0.77350   1.00
O2       0.72650    0.22650    0.83820   1.00
O2       0.83820    0.27350    0.77350   1.00
O2       0.77350    0.33820    0.77350   1.00
O2       0.77350    0.27350    0.83820   1.00
C1       0.75000    0.25000    0.64480   1.00
C1       0.75000    0.14480    0.75000   1.00
C1       0.85520    0.25000    0.75000   1.00
C1       0.64480    0.25000    0.75000   1.00
C1       0.75000    0.35520    0.75000   1.00
C1       0.75000    0.25000    0.85520   1.00
O1       0.25000    0.75000    0.75000   1.00
Zn1      0.28280    0.71720    0.71720   1.00
Zn1      0.21720    0.78280    0.71720   1.00
Zn1      0.21720    0.71720    0.78280   1.00
Zn1      0.28280    0.78280    0.78280   1.00
O2       0.27350    0.72650    0.66180   1.00
O2       0.27350    0.66180    0.72650   1.00
O2       0.33820    0.72650    0.72650   1.00
O2       0.22650    0.77350    0.66180   1.00
O2       0.16180    0.77350    0.72650   1.00
O2       0.22650    0.83820    0.72650   1.00
O2       0.22650    0.66180    0.77350   1.00
O2       0.16180    0.72650    0.77350   1.00
O2       0.22650    0.72650    0.83820   1.00
O2       0.33820    0.77350    0.77350   1.00
O2       0.27350    0.83820    0.77350   1.00
O2       0.27350    0.77350    0.83820   1.00
C1       0.25000    0.75000    0.64480   1.00
C1       0.25000    0.64480    0.75000   1.00
C1       0.35520    0.75000    0.75000   1.00
C1       0.14480    0.75000    0.75000   1.00
C1       0.25000    0.85520    0.75000   1.00
C1       0.25000    0.75000    0.85520   1.00
O1       1.00000    1.00000    1.00000   1.00
Zn1      0.96720    1.03280    1.03280   1.00
Zn1      1.03280    0.96720    1.03280   1.00
Zn1      1.03280    1.03280    0.96720   1.00
Zn1      0.96720    0.96720    0.96720   1.00
O2       0.97650    1.02350    1.08820   1.00
O2       0.97650    1.08820    1.02350   1.00
O2       0.91180    1.02350    1.02350   1.00
O2       1.02350    0.97650    1.08820   1.00
O2       1.08820    0.97650    1.02350   1.00
O2       1.02350    0.91180    1.02350   1.00
O2       1.02350    1.08820    0.97650   1.00
O2       1.08820    1.02350    0.97650   1.00
O2       1.02350    1.02350    0.91180   1.00
O2       0.91180    0.97650    0.97650   1.00
O2       0.97650    0.91180    0.97650   1.00
O2       0.97650    0.97650    0.91180   1.00
C1       1.00000    1.00000    1.10520   1.00
C1       1.00000    1.10520    1.00000   1.00
C1       0.89480    1.00000    1.00000   1.00
C1       1.10520    1.00000    1.00000   1.00
C1       1.00000    0.89480    1.00000   1.00
C1       1.00000    1.00000    0.89480   1.00
O1       0.50000    0.50000    1.00000   1.00
Zn1      0.46720    0.53280    1.03280   1.00
Zn1      0.53280    0.46720    1.03280   1.00
Zn1      0.53280    0.53280    0.96720   1.00
Zn1      0.46720    0.46720    0.96720   1.00
O2       0.47650    0.52350    1.08820   1.00
O2       0.47650    0.58820    1.02350   1.00
O2       0.41180    0.52350    1.02350   1.00
O2       0.52350    0.47650    1.08820   1.00
O2       0.58820    0.47650    1.02350   1.00
O2       0.52350    0.41180    1.02350   1.00
O2       0.52350    0.58820    0.97650   1.00
O2       0.58820    0.52350    0.97650   1.00
O2       0.52350    0.52350    0.91180   1.00
O2       0.41180    0.47650    0.97650   1.00
O2       0.47650    0.41180    0.97650   1.00
O2       0.47650    0.47650    0.91180   1.00
C1       0.50000    0.50000    1.10520   1.00
C1       0.50000    0.60520    1.00000   1.00
C1       0.39480    0.50000    1.00000   1.00
C1       0.60520    0.50000    1.00000   1.00
C1       0.50000    0.39480    1.00000   1.00
C1       0.50000    0.50000    0.89480   1.00
O1       0.50000    1.00000    0.50000   1.00
Zn1      0.46720    1.03280    0.53280   1.00
Zn1      0.53280    0.96720    0.53280   1.00
Zn1      0.53280    1.03280    0.46720   1.00
Zn1      0.46720    0.96720    0.46720   1.00
O2       0.47650    1.02350    0.58820   1.00
O2       0.47650    1.08820    0.52350   1.00
O2       0.41180    1.02350    0.52350   1.00
O2       0.52350    0.97650    0.58820   1.00
O2       0.58820    0.97650    0.52350   1.00
O2       0.52350    0.91180    0.52350   1.00
O2       0.52350    1.08820    0.47650   1.00
O2       0.58820    1.02350    0.47650   1.00
O2       0.52350    1.02350    0.41180   1.00
O2       0.41180    0.97650    0.47650   1.00
O2       0.47650    0.91180    0.47650   1.00
O2       0.47650    0.97650    0.41180   1.00
C1       0.50000    1.00000    0.60520   1.00
C1       0.50000    1.10520    0.50000   1.00
C1       0.39480    1.00000    0.50000   1.00
C1       0.60520    1.00000    0.50000   1.00
C1       0.50000    0.89480    0.50000   1.00
C1       0.50000    1.00000    0.39480   1.00
O1       1.00000    0.50000    0.50000   1.00
Zn1      0.96720    0.53280    0.53280   1.00
Zn1      1.03280    0.46720    0.53280   1.00
Zn1      1.03280    0.53280    0.46720   1.00
Zn1      0.96720    0.46720    0.46720   1.00
O2       0.97650    0.52350    0.58820   1.00
O2       0.97650    0.58820    0.52350   1.00
O2       0.91180    0.52350    0.52350   1.00
O2       1.02350    0.47650    0.58820   1.00
O2       1.08820    0.47650    0.52350   1.00
O2       1.02350    0.41180    0.52350   1.00
O2       1.02350    0.58820    0.47650   1.00
O2       1.08820    0.52350    0.47650   1.00
O2       1.02350    0.52350    0.41180   1.00
O2       0.91180    0.47650    0.47650   1.00
O2       0.97650    0.41180    0.47650   1.00
O2       0.97650    0.47650    0.41180   1.00
C1       1.00000    0.50000    0.60520   1.00
C1       1.00000    0.60520    0.50000   1.00
C1       0.89480    0.50000    0.50000   1.00
C1       1.10520    0.50000    0.50000   1.00
C1       1.00000    0.39480    0.50000   1.00
C1       1.00000    0.50000    0.39480   1.00
O1       0.50000    0.50000    0.50000   1.00
Zn1      0.53280    0.46720    0.46720   1.00
Zn1      0.46720    0.53280    0.46720   1.00
Zn1      0.46720    0.46720    0.53280   1.00
Zn1      0.53280    0.53280    0.53280   1.00
O2       0.52350    0.47650    0.41180   1.00
O2       0.52350    0.41180    0.47650   1.00
O2       0.58820    0.47650    0.47650   1.00
O2       0.47650    0.52350    0.41180   1.00
O2       0.41180    0.52350    0.47650   1.00
O2       0.47650    0.58820    0.47650   1.00
O2       0.47650    0.41180    0.52350   1.00
O2       0.41180    0.47650    0.52350   1.00
O2       0.47650    0.47650    0.58820   1.00
O2       0.58820    0.52350    0.52350   1.00
O2       0.52350    0.58820    0.52350   1.00
O2       0.52350    0.52350    0.58820   1.00
C1       0.50000    0.50000    0.39480   1.00
C1       0.50000    0.39480    0.50000   1.00
C1       0.60520    0.50000    0.50000   1.00
C1       0.39480    0.50000    0.50000   1.00
C1       0.50000    0.60520    0.50000   1.00
C1       0.50000    0.50000    0.60520   1.00
O1       1.00000    1.00000    0.50000   1.00
Zn1      1.03280    0.96720    0.46720   1.00
Zn1      0.96720    1.03280    0.46720   1.00
Zn1      0.96720    0.96720    0.53280   1.00
Zn1      1.03280    1.03280    0.53280   1.00
O2       1.02350    0.97650    0.41180   1.00
O2       1.02350    0.91180    0.47650   1.00
O2       1.08820    0.97650    0.47650   1.00
O2       0.97650    1.02350    0.41180   1.00
O2       0.91180    1.02350    0.47650   1.00
O2       0.97650    1.08820    0.47650   1.00
O2       0.97650    0.91180    0.52350   1.00
O2       0.91180    0.97650    0.52350   1.00
O2       0.97650    0.97650    0.58820   1.00
O2       1.08820    1.02350    0.52350   1.00
O2       1.02350    1.08820    0.52350   1.00
O2       1.02350    1.02350    0.58820   1.00
C1       1.00000    1.00000    0.39480   1.00
C1       1.00000    0.89480    0.50000   1.00
C1       1.10520    1.00000    0.50000   1.00
C1       0.89480    1.00000    0.50000   1.00
C1       1.00000    1.10520    0.50000   1.00
C1       1.00000    1.00000    0.60520   1.00
O1       1.00000    0.50000    1.00000   1.00
Zn1      1.03280    0.46720    0.96720   1.00
Zn1      0.96720    0.53280    0.96720   1.00
Zn1      0.96720    0.46720    1.03280   1.00
Zn1      1.03280    0.53280    1.03280   1.00
O2       1.02350    0.47650    0.91180   1.00
O2       1.02350    0.41180    0.97650   1.00
O2       1.08820    0.47650    0.97650   1.00
O2       0.97650    0.52350    0.91180   1.00
O2       0.91180    0.52350    0.97650   1.00
O2       0.97650    0.58820    0.97650   1.00
O2       0.97650    0.41180    1.02350   1.00
O2       0.91180    0.47650    1.02350   1.00
O2       0.97650    0.47650    1.08820   1.00
O2       1.08820    0.52350    1.02350   1.00
O2       1.02350    0.58820    1.02350   1.00
O2       1.02350    0.52350    1.08820   1.00
C1       1.00000    0.50000    0.89480   1.00
C1       1.00000    0.39480    1.00000   1.00
C1       1.10520    0.50000    1.00000   1.00
C1       0.89480    0.50000    1.00000   1.00
C1       1.00000    0.60520    1.00000   1.00
C1       1.00000    0.50000    1.10520   1.00
O1       0.50000    1.00000    1.00000   1.00
Zn1      0.53280    0.96720    0.96720   1.00
Zn1      0.46720    1.03280    0.96720   1.00
Zn1      0.46720    0.96720    1.03280   1.00
Zn1      0.53280    1.03280    1.03280   1.00
O2       0.52350    0.97650    0.91180   1.00
O2       0.52350    0.91180    0.97650   1.00
O2       0.58820    0.97650    0.97650   1.00
O2       0.47650    1.02350    0.91180   1.00
O2       0.41180    1.02350    0.97650   1.00
O2       0.47650    1.08820    0.97650   1.00
O2       0.47650    0.91180    1.02350   1.00
O2       0.41180    0.97650    1.02350   1.00
O2       0.47650    0.97650    1.08820   1.00
O2       0.58820    1.02350    1.02350   1.00
O2       0.52350    1.08820    1.02350   1.00
O2       0.52350    1.02350    1.08820   1.00
C1       0.50000    1.00000    0.89480   1.00
C1       0.50000    0.89480    1.00000   1.00
C1       0.60520    1.00000    1.00000   1.00
C1       0.39480    1.00000    1.00000   1.00
C1       0.50000    1.10520    1.00000   1.00
C1       0.50000    1.00000    1.10520   1.00
C4       0.74965    0.75016    0.97915   1.00
C4       0.75035    0.74984    1.02085   1.00
C3       0.75150    0.78530    0.95751   1.00
C3       0.77465    0.77521    1.04252   1.00
C3       0.74793    0.71509    0.95738   1.00
C3       0.72596    0.72458    1.04259   1.00
C2       0.75007    0.75015    0.89482   1.00
C2       0.75007    0.75015    1.10518   1.00
C3a      0.75170    0.78545    0.91599   1.00
C3       0.77447    0.77529    1.08382   1.00
C3       0.74814    0.71516    0.91611   1.00
C3a      0.72569    0.72457    1.08403   1.00
H1       0.75248    0.81283    0.97294   1.00
H1       0.79425    0.79492    1.02750   1.00
C5       0.75350    0.82346    0.89410   1.00
H1       0.79355    0.79513    1.09933   1.00
H1       0.74709    0.68768    0.90056   1.00
C5       0.69905    0.69690    1.10535   1.00
H1       0.70598    0.70536    1.02747   1.00
H1       0.74720    0.68726    0.97230   1.00
H2       0.70797    0.66651    1.09837   1.00
H2       0.70175    0.70052    1.13747   1.00
N1       0.65844    0.70343    1.09395   1.00
C6       0.64321    0.69830    1.05810   1.00
C6       0.62936    0.71530    1.11757   1.00
C6       0.60396    0.70718    1.05873   1.00
C6       0.59516    0.71800    1.09656   1.00
H3       0.65952    0.68865    1.03281   1.00
H3       0.63276    0.72179    1.14831   1.00
H3       0.58397    0.70586    1.03436   1.00
H3       0.56696    0.72683    1.10758   1.00
H2       0.75396    0.81724    0.86228   1.00
H2       0.72732    0.84163    0.90001   1.00
N1       0.78832    0.84531    0.90523   1.00
C6       0.81969    0.85685    0.88078   1.00
C6       0.79790    0.85978    0.94285   1.00
C6       0.84668    0.87713    0.90277   1.00
C6       0.83330    0.87891    0.94091   1.00
H3       0.82189    0.85053    0.84992   1.00
H3       0.78025    0.85589    0.96876   1.00
H3       0.87367    0.88944    0.89205   1.00
H3       0.84809    0.89281    0.96505   1.00
C4       0.75016    0.97915    0.74965   1.00
C4       0.74984    1.02085    0.75035   1.00
C3       0.78530    0.95751    0.75150   1.00
C3       0.77521    1.04252    0.77465   1.00
C3       0.71509    0.95738    0.74793   1.00
C3       0.72458    1.04259    0.72596   1.00
C2       0.75015    0.89482    0.75007   1.00
C2       0.75015    1.10518    0.75007   1.00
C3a      0.78545    0.91599    0.75170   1.00
C3       0.77529    1.08382    0.77447   1.00
C3       0.71516    0.91611    0.74814   1.00
C3a      0.72457    1.08403    0.72569   1.00
H1       0.81283    0.97294    0.75248   1.00
H1       0.79492    1.02750    0.79425   1.00
C5       0.82346    0.89410    0.75350   1.00
H1       0.79513    1.09933    0.79355   1.00
H1       0.68768    0.90056    0.74709   1.00
C5       0.69690    1.10535    0.69905   1.00
H1       0.70536    1.02747    0.70598   1.00
H1       0.68726    0.97230    0.74720   1.00
H2       0.66651    1.09837    0.70797   1.00
H2       0.70052    1.13747    0.70175   1.00
N1       0.70343    1.09395    0.65844   1.00
C6       0.69830    1.05810    0.64321   1.00
C6       0.71530    1.11757    0.62936   1.00
C6       0.70718    1.05873    0.60396   1.00
C6       0.71800    1.09656    0.59516   1.00
H3       0.68865    1.03281    0.65952   1.00
H3       0.72179    1.14831    0.63276   1.00
H3       0.70586    1.03436    0.58397   1.00
H3       0.72683    1.10758    0.56696   1.00
H2       0.81724    0.86228    0.75396   1.00
H2       0.84163    0.90001    0.72732   1.00
N1       0.84531    0.90523    0.78832   1.00
C6       0.85685    0.88078    0.81969   1.00
C6       0.85978    0.94285    0.79790   1.00
C6       0.87713    0.90277    0.84668   1.00
C6       0.87891    0.94091    0.83330   1.00
H3       0.85053    0.84992    0.82189   1.00
H3       0.85589    0.96876    0.78025   1.00
H3       0.88944    0.89205    0.87367   1.00
H3       0.89281    0.96505    0.84809   1.00
C4       0.52085    0.74965    0.74984   1.00
C4       0.47915    0.75035    0.75016   1.00
C3       0.54249    0.75150    0.71470   1.00
C3       0.45748    0.77465    0.72479   1.00
C3       0.54262    0.74793    0.78491   1.00
C3       0.45741    0.72596    0.77542   1.00
C2       0.60518    0.75007    0.74985   1.00
C2       0.39482    0.75007    0.74985   1.00
C3a      0.58401    0.75170    0.71455   1.00
C3       0.41618    0.77447    0.72471   1.00
C3       0.58389    0.74814    0.78484   1.00
C3a      0.41597    0.72569    0.77543   1.00
H1       0.52706    0.75248    0.68717   1.00
H1       0.47250    0.79425    0.70508   1.00
C5       0.60590    0.75350    0.67654   1.00
H1       0.40067    0.79355    0.70487   1.00
H1       0.59944    0.74709    0.81232   1.00
C5       0.39465    0.69905    0.80310   1.00
H1       0.47253    0.70598    0.79464   1.00
H1       0.52770    0.74720    0.81274   1.00
H2       0.40163    0.70797    0.83349   1.00
H2       0.36253    0.70175    0.79948   1.00
N1       0.40605    0.65844    0.79657   1.00
C6       0.44190    0.64321    0.80170   1.00
C6       0.38243    0.62936    0.78470   1.00
C6       0.44127    0.60396    0.79282   1.00
C6       0.40344    0.59516    0.78200   1.00
H3       0.46719    0.65952    0.81135   1.00
H3       0.35169    0.63276    0.77821   1.00
H3       0.46564    0.58397    0.79414   1.00
H3       0.39242    0.56696    0.77317   1.00
H2       0.63772    0.75396    0.68276   1.00
H2       0.59999    0.72732    0.65837   1.00
N1       0.59477    0.78832    0.65469   1.00
C6       0.61922    0.81969    0.64315   1.00
C6       0.55715    0.79790    0.64022   1.00
C6       0.59723    0.84668    0.62287   1.00
C6       0.55909    0.83330    0.62109   1.00
H3       0.65008    0.82189    0.64947   1.00
H3       0.53124    0.78025    0.64411   1.00
H3       0.60795    0.87367    0.61056   1.00
H3       0.53495    0.84809    0.60719   1.00
C4       0.97915    0.74965    0.75016   1.00
C4       1.02085    0.75035    0.74984   1.00
C3       0.95751    0.75150    0.78530   1.00
C3       1.04252    0.77465    0.77521   1.00
C3       0.95738    0.74793    0.71509   1.00
C3       1.04259    0.72596    0.72458   1.00
C2       0.89482    0.75007    0.75015   1.00
C2       1.10518    0.75007    0.75015   1.00
C3a      0.91599    0.75170    0.78545   1.00
C3       1.08382    0.77447    0.77529   1.00
C3       0.91611    0.74814    0.71516   1.00
C3a      1.08403    0.72569    0.72457   1.00
H1       0.97294    0.75248    0.81283   1.00
H1       1.02750    0.79425    0.79492   1.00
C5       0.89410    0.75350    0.82346   1.00
H1       1.09933    0.79355    0.79513   1.00
H1       0.90056    0.74709    0.68768   1.00
C5       1.10535    0.69905    0.69690   1.00
H1       1.02747    0.70598    0.70536   1.00
H1       0.97230    0.74720    0.68726   1.00
H2       1.09837    0.70797    0.66651   1.00
H2       1.13747    0.70175    0.70052   1.00
N1       1.09395    0.65844    0.70343   1.00
C6       1.05810    0.64321    0.69830   1.00
C6       1.11757    0.62936    0.71530   1.00
C6       1.05873    0.60396    0.70718   1.00
C6       1.09656    0.59516    0.71800   1.00
H3       1.03281    0.65952    0.68865   1.00
H3       1.14831    0.63276    0.72179   1.00
H3       1.03436    0.58397    0.70586   1.00
H3       1.10758    0.56696    0.72683   1.00
H2       0.86228    0.75396    0.81724   1.00
H2       0.90001    0.72732    0.84163   1.00
N1       0.90523    0.78832    0.84531   1.00
C6       0.88078    0.81969    0.85685   1.00
C6       0.94285    0.79790    0.85978   1.00
C6       0.90277    0.84668    0.87713   1.00
C6       0.94091    0.83330    0.87891   1.00
H3       0.84992    0.82189    0.85053   1.00
H3       0.96876    0.78025    0.85589   1.00
H3       0.89205    0.87367    0.88944   1.00
H3       0.96505    0.84809    0.89281   1.00
C4       0.74984    0.52085    0.74965   1.00
C4       0.75016    0.47915    0.75035   1.00
C3       0.71470    0.54249    0.75150   1.00
C3       0.72479    0.45748    0.77465   1.00
C3       0.78491    0.54262    0.74793   1.00
C3       0.77542    0.45741    0.72596   1.00
C2       0.74985    0.60518    0.75007   1.00
C2       0.74985    0.39482    0.75007   1.00
C3a      0.71455    0.58401    0.75170   1.00
C3       0.72471    0.41618    0.77447   1.00
C3       0.78484    0.58389    0.74814   1.00
C3a      0.77543    0.41597    0.72569   1.00
H1       0.68717    0.52706    0.75248   1.00
H1       0.70508    0.47250    0.79425   1.00
C5       0.67654    0.60590    0.75350   1.00
H1       0.70487    0.40067    0.79355   1.00
H1       0.81232    0.59944    0.74709   1.00
C5       0.80310    0.39465    0.69905   1.00
H1       0.79464    0.47253    0.70598   1.00
H1       0.81274    0.52770    0.74720   1.00
H2       0.83349    0.40163    0.70797   1.00
H2       0.79948    0.36253    0.70175   1.00
N1       0.79657    0.40605    0.65844   1.00
C6       0.80170    0.44190    0.64321   1.00
C6       0.78470    0.38243    0.62936   1.00
C6       0.79282    0.44127    0.60396   1.00
C6       0.78200    0.40344    0.59516   1.00
H3       0.81135    0.46719    0.65952   1.00
H3       0.77821    0.35169    0.63276   1.00
H3       0.79414    0.46564    0.58397   1.00
H3       0.77317    0.39242    0.56696   1.00
H2       0.68276    0.63772    0.75396   1.00
H2       0.65837    0.59999    0.72732   1.00
N1       0.65469    0.59477    0.78832   1.00
C6       0.64315    0.61922    0.81969   1.00
C6       0.64022    0.55715    0.79790   1.00
C6       0.62287    0.59723    0.84668   1.00
C6       0.62109    0.55909    0.83330   1.00
H3       0.64947    0.65008    0.82189   1.00
H3       0.64411    0.53124    0.78025   1.00
H3       0.61056    0.60795    0.87367   1.00
H3       0.60719    0.53495    0.84809   1.00
C4       0.74965    0.74984    0.52085   1.00
C4       0.75035    0.75016    0.47915   1.00
C3       0.75150    0.71470    0.54249   1.00
C3       0.77465    0.72479    0.45748   1.00
C3       0.74793    0.78491    0.54262   1.00
C3       0.72596    0.77542    0.45741   1.00
C2       0.75007    0.74985    0.60518   1.00
C2       0.75007    0.74985    0.39482   1.00
C3a      0.75170    0.71455    0.58401   1.00
C3       0.77447    0.72471    0.41618   1.00
C3       0.74814    0.78484    0.58389   1.00
C3a      0.72569    0.77543    0.41597   1.00
H1       0.75248    0.68717    0.52706   1.00
H1       0.79425    0.70508    0.47250   1.00
C5       0.75350    0.67654    0.60590   1.00
H1       0.79355    0.70487    0.40067   1.00
H1       0.74709    0.81232    0.59944   1.00
C5       0.69905    0.80310    0.39465   1.00
H1       0.70598    0.79464    0.47253   1.00
H1       0.74720    0.81274    0.52770   1.00
H2       0.70797    0.83349    0.40163   1.00
H2       0.70175    0.79948    0.36253   1.00
N1       0.65844    0.79657    0.40605   1.00
C6       0.64321    0.80170    0.44190   1.00
C6       0.62936    0.78470    0.38243   1.00
C6       0.60396    0.79282    0.44127   1.00
C6       0.59516    0.78200    0.40344   1.00
H3       0.65952    0.81135    0.46719   1.00
H3       0.63276    0.77821    0.35169   1.00
H3       0.58397    0.79414    0.46564   1.00
H3       0.56696    0.77317    0.39242   1.00
H2       0.75396    0.68276    0.63772   1.00
H2       0.72732    0.65837    0.59999   1.00
N1       0.78832    0.65469    0.59477   1.00
C6       0.81969    0.64315    0.61922   1.00
C6       0.79790    0.64022    0.55715   1.00
C6       0.84668    0.62287    0.59723   1.00
C6       0.83330    0.62109    0.55909   1.00
H3       0.82189    0.64947    0.65008   1.00
H3       0.78025    0.64411    0.53124   1.00
H3       0.87367    0.61056    0.60795   1.00
H3       0.84809    0.60719    0.53495   1.00
C4       0.24965    0.25016    0.97915   1.00
C4       0.25035    0.24984    1.02085   1.00
C3       0.25150    0.28530    0.95751   1.00
C3       0.27465    0.27521    1.04252   1.00
C3       0.24793    0.21509    0.95738   1.00
C3       0.22596    0.22458    1.04259   1.00
C2       0.25007    0.25015    0.89482   1.00
C2       0.25007    0.25015    1.10518   1.00
C3a      0.25170    0.28545    0.91599   1.00
C3       0.27447    0.27529    1.08382   1.00
C3       0.24814    0.21516    0.91611   1.00
C3a      0.22569    0.22457    1.08403   1.00
H1       0.25248    0.31283    0.97294   1.00
H1       0.29425    0.29492    1.02750   1.00
C5       0.25350    0.32346    0.89410   1.00
H1       0.29355    0.29513    1.09933   1.00
H1       0.24709    0.18768    0.90056   1.00
C5       0.19905    0.19690    1.10535   1.00
H1       0.20598    0.20536    1.02747   1.00
H1       0.24720    0.18726    0.97230   1.00
H2       0.20797    0.16651    1.09837   1.00
H2       0.20175    0.20052    1.13747   1.00
N1       0.15844    0.20343    1.09395   1.00
C6       0.14321    0.19830    1.05810   1.00
C6       0.12936    0.21530    1.11757   1.00
C6       0.10396    0.20718    1.05873   1.00
C6       0.09516    0.21800    1.09656   1.00
H3       0.15952    0.18865    1.03281   1.00
H3       0.13276    0.22179    1.14831   1.00
H3       0.08397    0.20586    1.03436   1.00
H3       0.06696    0.22683    1.10758   1.00
H2       0.25396    0.31724    0.86228   1.00
H2       0.22732    0.34163    0.90001   1.00
N1       0.28832    0.34531    0.90523   1.00
C6       0.31969    0.35685    0.88078   1.00
C6       0.29790    0.35978    0.94285   1.00
C6       0.34668    0.37713    0.90277   1.00
C6       0.33330    0.37891    0.94091   1.00
H3       0.32189    0.35053    0.84992   1.00
H3       0.28025    0.35589    0.96876   1.00
H3       0.37367    0.38944    0.89205   1.00
H3       0.34809    0.39281    0.96505   1.00
C4       0.25016    0.47915    0.74965   1.00
C4       0.24984    0.52085    0.75035   1.00
C3       0.28530    0.45751    0.75150   1.00
C3       0.27521    0.54252    0.77465   1.00
C3       0.21509    0.45738    0.74793   1.00
C3       0.22458    0.54259    0.72596   1.00
C2       0.25015    0.39482    0.75007   1.00
C2       0.25015    0.60518    0.75007   1.00
C3a      0.28545    0.41599    0.75170   1.00
C3       0.27529    0.58382    0.77447   1.00
C3       0.21516    0.41611    0.74814   1.00
C3a      0.22457    0.58403    0.72569   1.00
H1       0.31283    0.47294    0.75248   1.00
H1       0.29492    0.52750    0.79425   1.00
C5       0.32346    0.39410    0.75350   1.00
H1       0.29513    0.59933    0.79355   1.00
H1       0.18768    0.40056    0.74709   1.00
C5       0.19690    0.60535    0.69905   1.00
H1       0.20536    0.52747    0.70598   1.00
H1       0.18726    0.47230    0.74720   1.00
H2       0.16651    0.59837    0.70797   1.00
H2       0.20052    0.63747    0.70175   1.00
N1       0.20343    0.59395    0.65844   1.00
C6       0.19830    0.55810    0.64321   1.00
C6       0.21530    0.61757    0.62936   1.00
C6       0.20718    0.55873    0.60396   1.00
C6       0.21800    0.59656    0.59516   1.00
H3       0.18865    0.53281    0.65952   1.00
H3       0.22179    0.64831    0.63276   1.00
H3       0.20586    0.53436    0.58397   1.00
H3       0.22683    0.60758    0.56696   1.00
H2       0.31724    0.36228    0.75396   1.00
H2       0.34163    0.40001    0.72732   1.00
N1       0.34531    0.40523    0.78832   1.00
C6       0.35685    0.38078    0.81969   1.00
C6       0.35978    0.44285    0.79790   1.00
C6       0.37713    0.40277    0.84668   1.00
C6       0.37891    0.44091    0.83330   1.00
H3       0.35053    0.34992    0.82189   1.00
H3       0.35589    0.46876    0.78025   1.00
H3       0.38944    0.39205    0.87367   1.00
H3       0.39281    0.46505    0.84809   1.00
C4       0.02085    0.24965    0.74984   1.00
C4       -0.02085   0.25035    0.75016   1.00
C3       0.04249    0.25150    0.71470   1.00
C3       -0.04252   0.27465    0.72479   1.00
C3       0.04262    0.24793    0.78491   1.00
C3       -0.04259   0.22596    0.77542   1.00
C2       0.10518    0.25007    0.74985   1.00
C2       -0.10518   0.25007    0.74985   1.00
C3a      0.08401    0.25170    0.71455   1.00
C3       -0.08382   0.27447    0.72471   1.00
C3       0.08389    0.24814    0.78484   1.00
C3a      -0.08403   0.22569    0.77543   1.00
H1       0.02706    0.25248    0.68717   1.00
H1       -0.02750   0.29425    0.70508   1.00
C5       0.10590    0.25350    0.67654   1.00
H1       -0.09933   0.29355    0.70487   1.00
H1       0.09944    0.24709    0.81232   1.00
C5       -0.10535   0.19905    0.80310   1.00
H1       -0.02747   0.20598    0.79464   1.00
H1       0.02770    0.24720    0.81274   1.00
H2       -0.09837   0.20797    0.83349   1.00
H2       -0.13747   0.20175    0.79948   1.00
N1       -0.09395   0.15844    0.79657   1.00
C6       -0.05810   0.14321    0.80170   1.00
C6       -0.11757   0.12936    0.78470   1.00
C6       -0.05873   0.10396    0.79282   1.00
C6       -0.09656   0.09516    0.78200   1.00
H3       -0.03281   0.15952    0.81135   1.00
H3       -0.14831   0.13276    0.77821   1.00
H3       -0.03436   0.08397    0.79414   1.00
H3       -0.10758   0.06696    0.77317   1.00
H2       0.13772    0.25396    0.68276   1.00
H2       0.09999    0.22732    0.65837   1.00
N1       0.09477    0.28832    0.65469   1.00
C6       0.11922    0.31969    0.64315   1.00
C6       0.05715    0.29790    0.64022   1.00
C6       0.09723    0.34668    0.62287   1.00
C6       0.05909    0.33330    0.62109   1.00
H3       0.15008    0.32189    0.64947   1.00
H3       0.03124    0.28025    0.64411   1.00
H3       0.10795    0.37367    0.61056   1.00
H3       0.03495    0.34809    0.60719   1.00
C4       0.47915    0.24965    0.75016   1.00
C4       0.52085    0.25035    0.74984   1.00
C3       0.45751    0.25150    0.78530   1.00
C3       0.54252    0.27465    0.77521   1.00
C3       0.45738    0.24793    0.71509   1.00
C3       0.54259    0.22596    0.72458   1.00
C2       0.39482    0.25007    0.75015   1.00
C2       0.60518    0.25007    0.75015   1.00
C3a      0.41599    0.25170    0.78545   1.00
C3       0.58382    0.27447    0.77529   1.00
C3       0.41611    0.24814    0.71516   1.00
C3a      0.58403    0.22569    0.72457   1.00
H1       0.47294    0.25248    0.81283   1.00
H1       0.52750    0.29425    0.79492   1.00
C5       0.39410    0.25350    0.82346   1.00
H1       0.59933    0.29355    0.79513   1.00
H1       0.40056    0.24709    0.68768   1.00
C5       0.60535    0.19905    0.69690   1.00
H1       0.52747    0.20598    0.70536   1.00
H1       0.47230    0.24720    0.68726   1.00
H2       0.59837    0.20797    0.66651   1.00
H2       0.63747    0.20175    0.70052   1.00
N1       0.59395    0.15844    0.70343   1.00
C6       0.55810    0.14321    0.69830   1.00
C6       0.61757    0.12936    0.71530   1.00
C6       0.55873    0.10396    0.70718   1.00
C6       0.59656    0.09516    0.71800   1.00
H3       0.53281    0.15952    0.68865   1.00
H3       0.64831    0.13276    0.72179   1.00
H3       0.53436    0.08397    0.70586   1.00
H3       0.60758    0.06696    0.72683   1.00
H2       0.36228    0.25396    0.81724   1.00
H2       0.40001    0.22732    0.84163   1.00
N1       0.40523    0.28832    0.84531   1.00
C6       0.38078    0.31969    0.85685   1.00
C6       0.44285    0.29790    0.85978   1.00
C6       0.40277    0.34668    0.87713   1.00
C6       0.44091    0.33330    0.87891   1.00
H3       0.34992    0.32189    0.85053   1.00
H3       0.46876    0.28025    0.85589   1.00
H3       0.39205    0.37367    0.88944   1.00
H3       0.46505    0.34809    0.89281   1.00
C4       0.24984    0.02085    0.74965   1.00
C4       0.25016    -0.02085   0.75035   1.00
C3       0.21470    0.04249    0.75150   1.00
C3       0.22479    -0.04252   0.77465   1.00
C3       0.28491    0.04262    0.74793   1.00
C3       0.27542    -0.04259   0.72596   1.00
C2       0.24985    0.10518    0.75007   1.00
C2       0.24985    -0.10518   0.75007   1.00
C3a      0.21455    0.08401    0.75170   1.00
C3       0.22471    -0.08382   0.77447   1.00
C3       0.28484    0.08389    0.74814   1.00
C3a      0.27543    -0.08403   0.72569   1.00
H1       0.18717    0.02706    0.75248   1.00
H1       0.20508    -0.02750   0.79425   1.00
C5       0.17654    0.10590    0.75350   1.00
H1       0.20487    -0.09933   0.79355   1.00
H1       0.31232    0.09944    0.74709   1.00
C5       0.30310    -0.10535   0.69905   1.00
H1       0.29464    -0.02747   0.70598   1.00
H1       0.31274    0.02770    0.74720   1.00
H2       0.33349    -0.09837   0.70797   1.00
H2       0.29948    -0.13747   0.70175   1.00
N1       0.29657    -0.09395   0.65844   1.00
C6       0.30170    -0.05810   0.64321   1.00
C6       0.28470    -0.11757   0.62936   1.00
C6       0.29282    -0.05873   0.60396   1.00
C6       0.28200    -0.09656   0.59516   1.00
H3       0.31135    -0.03281   0.65952   1.00
H3       0.27821    -0.14831   0.63276   1.00
H3       0.29414    -0.03436   0.58397   1.00
H3       0.27317    -0.10758   0.56696   1.00
H2       0.18276    0.13772    0.75396   1.00
H2       0.15837    0.09999    0.72732   1.00
N1       0.15469    0.09477    0.78832   1.00
C6       0.14315    0.11922    0.81969   1.00
C6       0.14022    0.05715    0.79790   1.00
C6       0.12287    0.09723    0.84668   1.00
C6       0.12109    0.05909    0.83330   1.00
H3       0.14947    0.15008    0.82189   1.00
H3       0.14411    0.03124    0.78025   1.00
H3       0.11056    0.10795    0.87367   1.00
H3       0.10719    0.03495    0.84809   1.00
C4       0.24965    0.24984    0.52085   1.00
C4       0.25035    0.25016    0.47915   1.00
C3       0.25150    0.21470    0.54249   1.00
C3       0.27465    0.22479    0.45748   1.00
C3       0.24793    0.28491    0.54262   1.00
C3       0.22596    0.27542    0.45741   1.00
C2       0.25007    0.24985    0.60518   1.00
C2       0.25007    0.24985    0.39482   1.00
C3a      0.25170    0.21455    0.58401   1.00
C3       0.27447    0.22471    0.41618   1.00
C3       0.24814    0.28484    0.58389   1.00
C3a      0.22569    0.27543    0.41597   1.00
H1       0.25248    0.18717    0.52706   1.00
H1       0.29425    0.20508    0.47250   1.00
C5       0.25350    0.17654    0.60590   1.00
H1       0.29355    0.20487    0.40067   1.00
H1       0.24709    0.31232    0.59944   1.00
C5       0.19905    0.30310    0.39465   1.00
H1       0.20598    0.29464    0.47253   1.00
H1       0.24720    0.31274    0.52770   1.00
H2       0.20797    0.33349    0.40163   1.00
H2       0.20175    0.29948    0.36253   1.00
N1       0.15844    0.29657    0.40605   1.00
C6       0.14321    0.30170    0.44190   1.00
C6       0.12936    0.28470    0.38243   1.00
C6       0.10396    0.29282    0.44127   1.00
C6       0.09516    0.28200    0.40344   1.00
H3       0.15952    0.31135    0.46719   1.00
H3       0.13276    0.27821    0.35169   1.00
H3       0.08397    0.29414    0.46564   1.00
H3       0.06696    0.27317    0.39242   1.00
H2       0.25396    0.18276    0.63772   1.00
H2       0.22732    0.15837    0.59999   1.00
N1       0.28832    0.15469    0.59477   1.00
C6       0.31969    0.14315    0.61922   1.00
C6       0.29790    0.14022    0.55715   1.00
C6       0.34668    0.12287    0.59723   1.00
C6       0.33330    0.12109    0.55909   1.00
H3       0.32189    0.14947    0.65008   1.00
H3       0.28025    0.14411    0.53124   1.00
H3       0.37367    0.11056    0.60795   1.00
H3       0.34809    0.10719    0.53495   1.00
C4       0.24965    0.75016    0.47915   1.00
C4       0.25035    0.74984    0.52085   1.00
C3       0.25150    0.78530    0.45751   1.00
C3       0.27465    0.77521    0.54252   1.00
C3       0.24793    0.71509    0.45738   1.00
C3       0.22596    0.72458    0.54259   1.00
C2       0.25007    0.75015    0.39482   1.00
C2       0.25007    0.75015    0.60518   1.00
C3a      0.25170    0.78545    0.41599   1.00
C3       0.27447    0.77529    0.58382   1.00
C3       0.24814    0.71516    0.41611   1.00
C3a      0.22569    0.72457    0.58403   1.00
H1       0.25248    0.81283    0.47294   1.00
H1       0.29425    0.79492    0.52750   1.00
C5       0.25350    0.82346    0.39410   1.00
H1       0.29355    0.79513    0.59933   1.00
H1       0.24709    0.68768    0.40056   1.00
C5       0.19905    0.69690    0.60535   1.00
H1       0.20598    0.70536    0.52747   1.00
H1       0.24720    0.68726    0.47230   1.00
H2       0.20797    0.66651    0.59837   1.00
H2       0.20175    0.70052    0.63747   1.00
N1       0.15844    0.70343    0.59395   1.00
C6       0.14321    0.69830    0.55810   1.00
C6       0.12936    0.71530    0.61757   1.00
C6       0.10396    0.70718    0.55873   1.00
C6       0.09516    0.71800    0.59656   1.00
H3       0.15952    0.68865    0.53281   1.00
H3       0.13276    0.72179    0.64831   1.00
H3       0.08397    0.70586    0.53436   1.00
H3       0.06696    0.72683    0.60758   1.00
H2       0.25396    0.81724    0.36228   1.00
H2       0.22732    0.84163    0.40001   1.00
N1       0.28832    0.84531    0.40523   1.00
C6       0.31969    0.85685    0.38078   1.00
C6       0.29790    0.85978    0.44285   1.00
C6       0.34668    0.87713    0.40277   1.00
C6       0.33330    0.87891    0.44091   1.00
H3       0.32189    0.85053    0.34992   1.00
H3       0.28025    0.85589    0.46876   1.00
H3       0.37367    0.88944    0.39205   1.00
H3       0.34809    0.89281    0.46505   1.00
C4       0.25016    0.97915    0.24965   1.00
C4       0.24984    1.02085    0.25035   1.00
C3       0.28530    0.95751    0.25150   1.00
C3       0.27521    1.04252    0.27465   1.00
C3       0.21509    0.95738    0.24793   1.00
C3       0.22458    1.04259    0.22596   1.00
C2       0.25015    0.89482    0.25007   1.00
C2       0.25015    1.10518    0.25007   1.00
C3a      0.28545    0.91599    0.25170   1.00
C3       0.27529    1.08382    0.27447   1.00
C3       0.21516    0.91611    0.24814   1.00
C3a      0.22457    1.08403    0.22569   1.00
H1       0.31283    0.97294    0.25248   1.00
H1       0.29492    1.02750    0.29425   1.00
C5       0.32346    0.89410    0.25350   1.00
H1       0.29513    1.09933    0.29355   1.00
H1       0.18768    0.90056    0.24709   1.00
C5       0.19690    1.10535    0.19905   1.00
H1       0.20536    1.02747    0.20598   1.00
H1       0.18726    0.97230    0.24720   1.00
H2       0.16651    1.09837    0.20797   1.00
H2       0.20052    1.13747    0.20175   1.00
N1       0.20343    1.09395    0.15844   1.00
C6       0.19830    1.05810    0.14321   1.00
C6       0.21530    1.11757    0.12936   1.00
C6       0.20718    1.05873    0.10396   1.00
C6       0.21800    1.09656    0.09516   1.00
H3       0.18865    1.03281    0.15952   1.00
H3       0.22179    1.14831    0.13276   1.00
H3       0.20586    1.03436    0.08397   1.00
H3       0.22683    1.10758    0.06696   1.00
H2       0.31724    0.86228    0.25396   1.00
H2       0.34163    0.90001    0.22732   1.00
N1       0.34531    0.90523    0.28832   1.00
C6       0.35685    0.88078    0.31969   1.00
C6       0.35978    0.94285    0.29790   1.00
C6       0.37713    0.90277    0.34668   1.00
C6       0.37891    0.94091    0.33330   1.00
H3       0.35053    0.84992    0.32189   1.00
H3       0.35589    0.96876    0.28025   1.00
H3       0.38944    0.89205    0.37367   1.00
H3       0.39281    0.96505    0.34809   1.00
C4       0.02085    0.74965    0.24984   1.00
C4       -0.02085   0.75035    0.25016   1.00
C3       0.04249    0.75150    0.21470   1.00
C3       -0.04252   0.77465    0.22479   1.00
C3       0.04262    0.74793    0.28491   1.00
C3       -0.04259   0.72596    0.27542   1.00
C2       0.10518    0.75007    0.24985   1.00
C2       -0.10518   0.75007    0.24985   1.00
C3a      0.08401    0.75170    0.21455   1.00
C3       -0.08382   0.77447    0.22471   1.00
C3       0.08389    0.74814    0.28484   1.00
C3a      -0.08403   0.72569    0.27543   1.00
H1       0.02706    0.75248    0.18717   1.00
H1       -0.02750   0.79425    0.20508   1.00
C5       0.10590    0.75350    0.17654   1.00
H1       -0.09933   0.79355    0.20487   1.00
H1       0.09944    0.74709    0.31232   1.00
C5       -0.10535   0.69905    0.30310   1.00
H1       -0.02747   0.70598    0.29464   1.00
H1       0.02770    0.74720    0.31274   1.00
H2       -0.09837   0.70797    0.33349   1.00
H2       -0.13747   0.70175    0.29948   1.00
N1       -0.09395   0.65844    0.29657   1.00
C6       -0.05810   0.64321    0.30170   1.00
C6       -0.11757   0.62936    0.28470   1.00
C6       -0.05873   0.60396    0.29282   1.00
C6       -0.09656   0.59516    0.28200   1.00
H3       -0.03281   0.65952    0.31135   1.00
H3       -0.14831   0.63276    0.27821   1.00
H3       -0.03436   0.58397    0.29414   1.00
H3       -0.10758   0.56696    0.27317   1.00
H2       0.13772    0.75396    0.18276   1.00
H2       0.09999    0.72732    0.15837   1.00
N1       0.09477    0.78832    0.15469   1.00
C6       0.11922    0.81969    0.14315   1.00
C6       0.05715    0.79790    0.14022   1.00
C6       0.09723    0.84668    0.12287   1.00
C6       0.05909    0.83330    0.12109   1.00
H3       0.15008    0.82189    0.14947   1.00
H3       0.03124    0.78025    0.14411   1.00
H3       0.10795    0.87367    0.11056   1.00
H3       0.03495    0.84809    0.10719   1.00
C4       0.47915    0.74965    0.25016   1.00
C4       0.52085    0.75035    0.24984   1.00
C3       0.45751    0.75150    0.28530   1.00
C3       0.54252    0.77465    0.27521   1.00
C3       0.45738    0.74793    0.21509   1.00
C3       0.54259    0.72596    0.22458   1.00
C2       0.39482    0.75007    0.25015   1.00
C2       0.60518    0.75007    0.25015   1.00
C3a      0.41599    0.75170    0.28545   1.00
C3       0.58382    0.77447    0.27529   1.00
C3       0.41611    0.74814    0.21516   1.00
C3a      0.58403    0.72569    0.22457   1.00
H1       0.47294    0.75248    0.31283   1.00
H1       0.52750    0.79425    0.29492   1.00
C5       0.39410    0.75350    0.32346   1.00
H1       0.59933    0.79355    0.29513   1.00
H1       0.40056    0.74709    0.18768   1.00
C5       0.60535    0.69905    0.19690   1.00
H1       0.52747    0.70598    0.20536   1.00
H1       0.47230    0.74720    0.18726   1.00
H2       0.59837    0.70797    0.16651   1.00
H2       0.63747    0.70175    0.20052   1.00
N1       0.59395    0.65844    0.20343   1.00
C6       0.55810    0.64321    0.19830   1.00
C6       0.61757    0.62936    0.21530   1.00
C6       0.55873    0.60396    0.20718   1.00
C6       0.59656    0.59516    0.21800   1.00
H3       0.53281    0.65952    0.18865   1.00
H3       0.64831    0.63276    0.22179   1.00
H3       0.53436    0.58397    0.20586   1.00
H3       0.60758    0.56696    0.22683   1.00
H2       0.36228    0.75396    0.31724   1.00
H2       0.40001    0.72732    0.34163   1.00
N1       0.40523    0.78832    0.34531   1.00
C6       0.38078    0.81969    0.35685   1.00
C6       0.44285    0.79790    0.35978   1.00
C6       0.40277    0.84668    0.37713   1.00
C6       0.44091    0.83330    0.37891   1.00
H3       0.34992    0.82189    0.35053   1.00
H3       0.46876    0.78025    0.35589   1.00
H3       0.39205    0.87367    0.38944   1.00
H3       0.46505    0.84809    0.39281   1.00
C4       0.24984    0.52085    0.24965   1.00
C4       0.25016    0.47915    0.25035   1.00
C3       0.21470    0.54249    0.25150   1.00
C3       0.22479    0.45748    0.27465   1.00
C3       0.28491    0.54262    0.24793   1.00
C3       0.27542    0.45741    0.22596   1.00
C2       0.24985    0.60518    0.25007   1.00
C2       0.24985    0.39482    0.25007   1.00
C3a      0.21455    0.58401    0.25170   1.00
C3       0.22471    0.41618    0.27447   1.00
C3       0.28484    0.58389    0.24814   1.00
C3a      0.27543    0.41597    0.22569   1.00
H1       0.18717    0.52706    0.25248   1.00
H1       0.20508    0.47250    0.29425   1.00
C5       0.17654    0.60590    0.25350   1.00
H1       0.20487    0.40067    0.29355   1.00
H1       0.31232    0.59944    0.24709   1.00
C5       0.30310    0.39465    0.19905   1.00
H1       0.29464    0.47253    0.20598   1.00
H1       0.31274    0.52770    0.24720   1.00
H2       0.33349    0.40163    0.20797   1.00
H2       0.29948    0.36253    0.20175   1.00
N1       0.29657    0.40605    0.15844   1.00
C6       0.30170    0.44190    0.14321   1.00
C6       0.28470    0.38243    0.12936   1.00
C6       0.29282    0.44127    0.10396   1.00
C6       0.28200    0.40344    0.09516   1.00
H3       0.31135    0.46719    0.15952   1.00
H3       0.27821    0.35169    0.13276   1.00
H3       0.29414    0.46564    0.08397   1.00
H3       0.27317    0.39242    0.06696   1.00
H2       0.18276    0.63772    0.25396   1.00
H2       0.15837    0.59999    0.22732   1.00
N1       0.15469    0.59477    0.28832   1.00
C6       0.14315    0.61922    0.31969   1.00
C6       0.14022    0.55715    0.29790   1.00
C6       0.12287    0.59723    0.34668   1.00
C6       0.12109    0.55909    0.33330   1.00
H3       0.14947    0.65008    0.32189   1.00
H3       0.14411    0.53124    0.28025   1.00
H3       0.11056    0.60795    0.37367   1.00
H3       0.10719    0.53495    0.34809   1.00
C4       0.24965    0.74984    0.02085   1.00
C4       0.25035    0.75016    -0.02085   1.00
C3       0.25150    0.71470    0.04249   1.00
C3       0.27465    0.72479    -0.04252   1.00
C3       0.24793    0.78491    0.04262   1.00
C3       0.22596    0.77542    -0.04259   1.00
C2       0.25007    0.74985    0.10518   1.00
C2       0.25007    0.74985    -0.10518   1.00
C3a      0.25170    0.71455    0.08401   1.00
C3       0.27447    0.72471    -0.08382   1.00
C3       0.24814    0.78484    0.08389   1.00
C3a      0.22569    0.77543    -0.08403   1.00
H1       0.25248    0.68717    0.02706   1.00
H1       0.29425    0.70508    -0.02750   1.00
C5       0.25350    0.67654    0.10590   1.00
H1       0.29355    0.70487    -0.09933   1.00
H1       0.24709    0.81232    0.09944   1.00
C5       0.19905    0.80310    -0.10535   1.00
H1       0.20598    0.79464    -0.02747   1.00
H1       0.24720    0.81274    0.02770   1.00
H2       0.20797    0.83349    -0.09837   1.00
H2       0.20175    0.79948    -0.13747   1.00
N1       0.15844    0.79657    -0.09395   1.00
C6       0.14321    0.80170    -0.05810   1.00
C6       0.12936    0.78470    -0.11757   1.00
C6       0.10396    0.79282    -0.05873   1.00
C6       0.09516    0.78200    -0.09656   1.00
H3       0.15952    0.81135    -0.03281   1.00
H3       0.13276    0.77821    -0.14831   1.00
H3       0.08397    0.79414    -0.03436   1.00
H3       0.06696    0.77317    -0.10758   1.00
H2       0.25396    0.68276    0.13772   1.00
H2       0.22732    0.65837    0.09999   1.00
N1       0.28832    0.65469    0.09477   1.00
C6       0.31969    0.64315    0.11922   1.00
C6       0.29790    0.64022    0.05715   1.00
C6       0.34668    0.62287    0.09723   1.00
C6       0.33330    0.62109    0.05909   1.00
H3       0.32189    0.64947    0.15008   1.00
H3       0.28025    0.64411    0.03124   1.00
H3       0.37367    0.61056    0.10795   1.00
H3       0.34809    0.60719    0.03495   1.00
C4       0.74965    0.25016    0.47915   1.00
C4       0.75035    0.24984    0.52085   1.00
C3       0.75150    0.28530    0.45751   1.00
C3       0.77465    0.27521    0.54252   1.00
C3       0.74793    0.21509    0.45738   1.00
C3       0.72596    0.22458    0.54259   1.00
C2       0.75007    0.25015    0.39482   1.00
C2       0.75007    0.25015    0.60518   1.00
C3a      0.75170    0.28545    0.41599   1.00
C3       0.77447    0.27529    0.58382   1.00
C3       0.74814    0.21516    0.41611   1.00
C3a      0.72569    0.22457    0.58403   1.00
H1       0.75248    0.31283    0.47294   1.00
H1       0.79425    0.29492    0.52750   1.00
C5       0.75350    0.32346    0.39410   1.00
H1       0.79355    0.29513    0.59933   1.00
H1       0.74709    0.18768    0.40056   1.00
C5       0.69905    0.19690    0.60535   1.00
H1       0.70598    0.20536    0.52747   1.00
H1       0.74720    0.18726    0.47230   1.00
H2       0.70797    0.16651    0.59837   1.00
H2       0.70175    0.20052    0.63747   1.00
N1       0.65844    0.20343    0.59395   1.00
C6       0.64321    0.19830    0.55810   1.00
C6       0.62936    0.21530    0.61757   1.00
C6       0.60396    0.20718    0.55873   1.00
C6       0.59516    0.21800    0.59656   1.00
H3       0.65952    0.18865    0.53281   1.00
H3       0.63276    0.22179    0.64831   1.00
H3       0.58397    0.20586    0.53436   1.00
H3       0.56696    0.22683    0.60758   1.00
H2       0.75396    0.31724    0.36228   1.00
H2       0.72732    0.34163    0.40001   1.00
N1       0.78832    0.34531    0.40523   1.00
C6       0.81969    0.35685    0.38078   1.00
C6       0.79790    0.35978    0.44285   1.00
C6       0.84668    0.37713    0.40277   1.00
C6       0.83330    0.37891    0.44091   1.00
H3       0.82189    0.35053    0.34992   1.00
H3       0.78025    0.35589    0.46876   1.00
H3       0.87367    0.38944    0.39205   1.00
H3       0.84809    0.39281    0.46505   1.00
C4       0.75016    0.47915    0.24965   1.00
C4       0.74984    0.52085    0.25035   1.00
C3       0.78530    0.45751    0.25150   1.00
C3       0.77521    0.54252    0.27465   1.00
C3       0.71509    0.45738    0.24793   1.00
C3       0.72458    0.54259    0.22596   1.00
C2       0.75015    0.39482    0.25007   1.00
C2       0.75015    0.60518    0.25007   1.00
C3a      0.78545    0.41599    0.25170   1.00
C3       0.77529    0.58382    0.27447   1.00
C3       0.71516    0.41611    0.24814   1.00
C3a      0.72457    0.58403    0.22569   1.00
H1       0.81283    0.47294    0.25248   1.00
H1       0.79492    0.52750    0.29425   1.00
C5       0.82346    0.39410    0.25350   1.00
H1       0.79513    0.59933    0.29355   1.00
H1       0.68768    0.40056    0.24709   1.00
C5       0.69690    0.60535    0.19905   1.00
H1       0.70536    0.52747    0.20598   1.00
H1       0.68726    0.47230    0.24720   1.00
H2       0.66651    0.59837    0.20797   1.00
H2       0.70052    0.63747    0.20175   1.00
N1       0.70343    0.59395    0.15844   1.00
C6       0.69830    0.55810    0.14321   1.00
C6       0.71530    0.61757    0.12936   1.00
C6       0.70718    0.55873    0.10396   1.00
C6       0.71800    0.59656    0.09516   1.00
H3       0.68865    0.53281    0.15952   1.00
H3       0.72179    0.64831    0.13276   1.00
H3       0.70586    0.53436    0.08397   1.00
H3       0.72683    0.60758    0.06696   1.00
H2       0.81724    0.36228    0.25396   1.00
H2       0.84163    0.40001    0.22732   1.00
N1       0.84531    0.40523    0.28832   1.00
C6       0.85685    0.38078    0.31969   1.00
C6       0.85978    0.44285    0.29790   1.00
C6       0.87713    0.40277    0.34668   1.00
C6       0.87891    0.44091    0.33330   1.00
H3       0.85053    0.34992    0.32189   1.00
H3       0.85589    0.46876    0.28025   1.00
H3       0.88944    0.39205    0.37367   1.00
H3       0.89281    0.46505    0.34809   1.00
C4       0.52085    0.24965    0.24984   1.00
C4       0.47915    0.25035    0.25016   1.00
C3       0.54249    0.25150    0.21470   1.00
C3       0.45748    0.27465    0.22479   1.00
C3       0.54262    0.24793    0.28491   1.00
C3       0.45741    0.22596    0.27542   1.00
C2       0.60518    0.25007    0.24985   1.00
C2       0.39482    0.25007    0.24985   1.00
C3a      0.58401    0.25170    0.21455   1.00
C3       0.41618    0.27447    0.22471   1.00
C3       0.58389    0.24814    0.28484   1.00
C3a      0.41597    0.22569    0.27543   1.00
H1       0.52706    0.25248    0.18717   1.00
H1       0.47250    0.29425    0.20508   1.00
C5       0.60590    0.25350    0.17654   1.00
H1       0.40067    0.29355    0.20487   1.00
H1       0.59944    0.24709    0.31232   1.00
C5       0.39465    0.19905    0.30310   1.00
H1       0.47253    0.20598    0.29464   1.00
H1       0.52770    0.24720    0.31274   1.00
H2       0.40163    0.20797    0.33349   1.00
H2       0.36253    0.20175    0.29948   1.00
N1       0.40605    0.15844    0.29657   1.00
C6       0.44190    0.14321    0.30170   1.00
C6       0.38243    0.12936    0.28470   1.00
C6       0.44127    0.10396    0.29282   1.00
C6       0.40344    0.09516    0.28200   1.00
H3       0.46719    0.15952    0.31135   1.00
H3       0.35169    0.13276    0.27821   1.00
H3       0.46564    0.08397    0.29414   1.00
H3       0.39242    0.06696    0.27317   1.00
H2       0.63772    0.25396    0.18276   1.00
H2       0.59999    0.22732    0.15837   1.00
N1       0.59477    0.28832    0.15469   1.00
C6       0.61922    0.31969    0.14315   1.00
C6       0.55715    0.29790    0.14022   1.00
C6       0.59723    0.34668    0.12287   1.00
C6       0.55909    0.33330    0.12109   1.00
H3       0.65008    0.32189    0.14947   1.00
H3       0.53124    0.28025    0.14411   1.00
H3       0.60795    0.37367    0.11056   1.00
H3       0.53495    0.34809    0.10719   1.00
C4       0.97915    0.24965    0.25016   1.00
C4       1.02085    0.25035    0.24984   1.00
C3       0.95751    0.25150    0.28530   1.00
C3       1.04252    0.27465    0.27521   1.00
C3       0.95738    0.24793    0.21509   1.00
C3       1.04259    0.22596    0.22458   1.00
C2       0.89482    0.25007    0.25015   1.00
C2       1.10518    0.25007    0.25015   1.00
C3a      0.91599    0.25170    0.28545   1.00
C3       1.08382    0.27447    0.27529   1.00
C3       0.91611    0.24814    0.21516   1.00
C3a      1.08403    0.22569    0.22457   1.00
H1       0.97294    0.25248    0.31283   1.00
H1       1.02750    0.29425    0.29492   1.00
C5       0.89410    0.25350    0.32346   1.00
H1       1.09933    0.29355    0.29513   1.00
H1       0.90056    0.24709    0.18768   1.00
C5       1.10535    0.19905    0.19690   1.00
H1       1.02747    0.20598    0.20536   1.00
H1       0.97230    0.24720    0.18726   1.00
H2       1.09837    0.20797    0.16651   1.00
H2       1.13747    0.20175    0.20052   1.00
N1       1.09395    0.15844    0.20343   1.00
C6       1.05810    0.14321    0.19830   1.00
C6       1.11757    0.12936    0.21530   1.00
C6       1.05873    0.10396    0.20718   1.00
C6       1.09656    0.09516    0.21800   1.00
H3       1.03281    0.15952    0.18865   1.00
H3       1.14831    0.13276    0.22179   1.00
H3       1.03436    0.08397    0.20586   1.00
H3       1.10758    0.06696    0.22683   1.00
H2       0.86228    0.25396    0.31724   1.00
H2       0.90001    0.22732    0.34163   1.00
N1       0.90523    0.28832    0.34531   1.00
C6       0.88078    0.31969    0.35685   1.00
C6       0.94285    0.29790    0.35978   1.00
C6       0.90277    0.34668    0.37713   1.00
C6       0.94091    0.33330    0.37891   1.00
H3       0.84992    0.32189    0.35053   1.00
H3       0.96876    0.28025    0.35589   1.00
H3       0.89205    0.37367    0.38944   1.00
H3       0.96505    0.34809    0.39281   1.00
C4       0.74984    0.02085    0.24965   1.00
C4       0.75016    -0.02085   0.25035   1.00
C3       0.71470    0.04249    0.25150   1.00
C3       0.72479    -0.04252   0.27465   1.00
C3       0.78491    0.04262    0.24793   1.00
C3       0.77542    -0.04259   0.22596   1.00
C2       0.74985    0.10518    0.25007   1.00
C2       0.74985    -0.10518   0.25007   1.00
C3a      0.71455    0.08401    0.25170   1.00
C3       0.72471    -0.08382   0.27447   1.00
C3       0.78484    0.08389    0.24814   1.00
C3a      0.77543    -0.08403   0.22569   1.00
H1       0.68717    0.02706    0.25248   1.00
H1       0.70508    -0.02750   0.29425   1.00
C5       0.67654    0.10590    0.25350   1.00
H1       0.70487    -0.09933   0.29355   1.00
H1       0.81232    0.09944    0.24709   1.00
C5       0.80310    -0.10535   0.19905   1.00
H1       0.79464    -0.02747   0.20598   1.00
H1       0.81274    0.02770    0.24720   1.00
H2       0.83349    -0.09837   0.20797   1.00
H2       0.79948    -0.13747   0.20175   1.00
N1       0.79657    -0.09395   0.15844   1.00
C6       0.80170    -0.05810   0.14321   1.00
C6       0.78470    -0.11757   0.12936   1.00
C6       0.79282    -0.05873   0.10396   1.00
C6       0.78200    -0.09656   0.09516   1.00
H3       0.81135    -0.03281   0.15952   1.00
H3       0.77821    -0.14831   0.13276   1.00
H3       0.79414    -0.03436   0.08397   1.00
H3       0.77317    -0.10758   0.06696   1.00
H2       0.68276    0.13772    0.25396   1.00
H2       0.65837    0.09999    0.22732   1.00
N1       0.65469    0.09477    0.28832   1.00
C6       0.64315    0.11922    0.31969   1.00
C6       0.64022    0.05715    0.29790   1.00
C6       0.62287    0.09723    0.34668   1.00
C6       0.62109    0.05909    0.33330   1.00
H3       0.64947    0.15008    0.32189   1.00
H3       0.64411    0.03124    0.28025   1.00
H3       0.61056    0.10795    0.37367   1.00
H3       0.60719    0.03495    0.34809   1.00
C4       0.74965    0.24984    0.02085   1.00
C4       0.75035    0.25016    -0.02085   1.00
C3       0.75150    0.21470    0.04249   1.00
C3       0.77465    0.22479    -0.04252   1.00
C3       0.74793    0.28491    0.04262   1.00
C3       0.72596    0.27542    -0.04259   1.00
C2       0.75007    0.24985    0.10518   1.00
C2       0.75007    0.24985    -0.10518   1.00
C3a      0.75170    0.21455    0.08401   1.00
C3       0.77447    0.22471    -0.08382   1.00
C3       0.74814    0.28484    0.08389   1.00
C3a      0.72569    0.27543    -0.08403   1.00
H1       0.75248    0.18717    0.02706   1.00
H1       0.79425    0.20508    -0.02750   1.00
C5       0.75350    0.17654    0.10590   1.00
H1       0.79355    0.20487    -0.09933   1.00
H1       0.74709    0.31232    0.09944   1.00
C5       0.69905    0.30310    -0.10535   1.00
H1       0.70598    0.29464    -0.02747   1.00
H1       0.74720    0.31274    0.02770   1.00
H2       0.70797    0.33349    -0.09837   1.00
H2       0.70175    0.29948    -0.13747   1.00
N1       0.65844    0.29657    -0.09395   1.00
C6       0.64321    0.30170    -0.05810   1.00
C6       0.62936    0.28470    -0.11757   1.00
C6       0.60396    0.29282    -0.05873   1.00
C6       0.59516    0.28200    -0.09656   1.00
H3       0.65952    0.31135    -0.03281   1.00
H3       0.63276    0.27821    -0.14831   1.00
H3       0.58397    0.29414    -0.03436   1.00
H3       0.56696    0.27317    -0.10758   1.00
H2       0.75396    0.18276    0.13772   1.00
H2       0.72732    0.15837    0.09999   1.00
N1       0.78832    0.15469    0.09477   1.00
C6       0.81969    0.14315    0.11922   1.00
C6       0.79790    0.14022    0.05715   1.00
C6       0.84668    0.12287    0.09723   1.00
C6       0.83330    0.12109    0.05909   1.00
H3       0.82189    0.14947    0.15008   1.00
H3       0.78025    0.14411    0.03124   1.00
H3       0.87367    0.11056    0.10795   1.00
H3       0.84809    0.10719    0.03495   1.00
C4       0.99965    1.00016    1.22915   1.00
C4       1.00035    0.99984    1.27085   1.00
C3       1.00150    1.03530    1.20751   1.00
C3       1.02465    1.02521    1.29252   1.00
C3       0.99793    0.96509    1.20738   1.00
C3       0.97596    0.97458    1.29259   1.00
C2       1.00007    1.00015    1.14482   1.00
C2       1.00007    1.00015    1.35518   1.00
C3a      1.00170    1.03545    1.16599   1.00
C3       1.02447    1.02529    1.33382   1.00
C3       0.99814    0.96516    1.16611   1.00
C3a      0.97569    0.97457    1.33403   1.00
H1       1.00248    1.06283    1.22294   1.00
H1       1.04425    1.04492    1.27750   1.00
C5       1.00350    1.07346    1.14410   1.00
H1       1.04355    1.04513    1.34933   1.00
H1       0.99709    0.93768    1.15056   1.00
C5       0.94905    0.94690    1.35535   1.00
H1       0.95598    0.95536    1.27747   1.00
H1       0.99720    0.93726    1.22230   1.00
H2       0.95797    0.91651    1.34837   1.00
H2       0.95175    0.95052    1.38747   1.00
N1       0.90844    0.95343    1.34395   1.00
C6       0.89321    0.94830    1.30810   1.00
C6       0.87936    0.96530    1.36757   1.00
C6       0.85396    0.95718    1.30873   1.00
C6       0.84516    0.96800    1.34656   1.00
H3       0.90952    0.93865    1.28281   1.00
H3       0.88276    0.97179    1.39831   1.00
H3       0.83397    0.95586    1.28436   1.00
H3       0.81696    0.97683    1.35758   1.00
H2       1.00396    1.06724    1.11228   1.00
H2       0.97732    1.09163    1.15001   1.00
N1       1.03832    1.09531    1.15523   1.00
C6       1.06969    1.10685    1.13078   1.00
C6       1.04790    1.10978    1.19285   1.00
C6       1.09668    1.12713    1.15277   1.00
C6       1.08330    1.12891    1.19091   1.00
H3       1.07189    1.10053    1.09992   1.00
H3       1.03025    1.10589    1.21876   1.00
H3       1.12367    1.13944    1.14205   1.00
H3       1.09809    1.14281    1.21505   1.00
C4       1.00016    1.22915    0.99965   1.00
C4       0.99984    1.27085    1.00035   1.00
C3       1.03530    1.20751    1.00150   1.00
C3       1.02521    1.29252    1.02465   1.00
C3       0.96509    1.20738    0.99793   1.00
C3       0.97458    1.29259    0.97596   1.00
C2       1.00015    1.14482    1.00007   1.00
C2       1.00015    1.35518    1.00007   1.00
C3a      1.03545    1.16599    1.00170   1.00
C3       1.02529    1.33382    1.02447   1.00
C3       0.96516    1.16611    0.99814   1.00
C3a      0.97457    1.33403    0.97569   1.00
H1       1.06283    1.22294    1.00248   1.00
H1       1.04492    1.27750    1.04425   1.00
C5       1.07346    1.14410    1.00350   1.00
H1       1.04513    1.34933    1.04355   1.00
H1       0.93768    1.15056    0.99709   1.00
C5       0.94690    1.35535    0.94905   1.00
H1       0.95536    1.27747    0.95598   1.00
H1       0.93726    1.22230    0.99720   1.00
H2       0.91651    1.34837    0.95797   1.00
H2       0.95052    1.38747    0.95175   1.00
N1       0.95343    1.34395    0.90844   1.00
C6       0.94830    1.30810    0.89321   1.00
C6       0.96530    1.36757    0.87936   1.00
C6       0.95718    1.30873    0.85396   1.00
C6       0.96800    1.34656    0.84516   1.00
H3       0.93865    1.28281    0.90952   1.00
H3       0.97179    1.39831    0.88276   1.00
H3       0.95586    1.28436    0.83397   1.00
H3       0.97683    1.35758    0.81696   1.00
H2       1.06724    1.11228    1.00396   1.00
H2       1.09163    1.15001    0.97732   1.00
N1       1.09531    1.15523    1.03832   1.00
C6       1.10685    1.13078    1.06969   1.00
C6       1.10978    1.19285    1.04790   1.00
C6       1.12713    1.15277    1.09668   1.00
C6       1.12891    1.19091    1.08330   1.00
H3       1.10053    1.09992    1.07189   1.00
H3       1.10589    1.21876    1.03025   1.00
H3       1.13944    1.14205    1.12367   1.00
H3       1.14281    1.21505    1.09809   1.00
C4       0.77085    0.99965    0.99984   1.00
C4       0.72915    1.00035    1.00016   1.00
C3       0.79249    1.00150    0.96470   1.00
C3       0.70748    1.02465    0.97479   1.00
C3       0.79262    0.99793    1.03491   1.00
C3       0.70741    0.97596    1.02542   1.00
C2       0.85518    1.00007    0.99985   1.00
C2       0.64482    1.00007    0.99985   1.00
C3a      0.83401    1.00170    0.96455   1.00
C3       0.66618    1.02447    0.97471   1.00
C3       0.83389    0.99814    1.03484   1.00
C3a      0.66597    0.97569    1.02543   1.00
H1       0.77706    1.00248    0.93717   1.00
H1       0.72250    1.04425    0.95508   1.00
C5       0.85590    1.00350    0.92654   1.00
H1       0.65067    1.04355    0.95487   1.00
H1       0.84944    0.99709    1.06232   1.00
C5       0.64465    0.94905    1.05310   1.00
H1       0.72253    0.95598    1.04464   1.00
H1       0.77770    0.99720    1.06274   1.00
H2       0.65163    0.95797    1.08349   1.00
H2       0.61253    0.95175    1.04948   1.00
N1       0.65605    0.90844    1.04657   1.00
C6       0.69190    0.89321    1.05170   1.00
C6       0.63243    0.87936    1.03470   1.00
C6       0.69127    0.85396    1.04282   1.00
C6       0.65344    0.84516    1.03200   1.00
H3       0.71719    0.90952    1.06135   1.00
H3       0.60169    0.88276    1.02821   1.00
H3       0.71564    0.83397    1.04414   1.00
H3       0.64242    0.81696    1.02317   1.00
H2       0.88772    1.00396    0.93276   1.00
H2       0.84999    0.97732    0.90837   1.00
N1       0.84477    1.03832    0.90469   1.00
C6       0.86922    1.06969    0.89315   1.00
C6       0.80715    1.04790    0.89022   1.00
C6       0.84723    1.09668    0.87287   1.00
C6       0.80909    1.08330    0.87109   1.00
H3       0.90008    1.07189    0.89947   1.00
H3       0.78124    1.03025    0.89411   1.00
H3       0.85795    1.12367    0.86056   1.00
H3       0.78495    1.09809    0.85719   1.00
C4       1.22915    0.99965    1.00016   1.00
C4       1.27085    1.00035    0.99984   1.00
C3       1.20751    1.00150    1.03530   1.00
C3       1.29252    1.02465    1.02521   1.00
C3       1.20738    0.99793    0.96509   1.00
C3       1.29259    0.97596    0.97458   1.00
C2       1.14482    1.00007    1.00015   1.00
C2       1.35518    1.00007    1.00015   1.00
C3a      1.16599    1.00170    1.03545   1.00
C3       1.33382    1.02447    1.02529   1.00
C3       1.16611    0.99814    0.96516   1.00
C3a      1.33403    0.97569    0.97457   1.00
H1       1.22294    1.00248    1.06283   1.00
H1       1.27750    1.04425    1.04492   1.00
C5       1.14410    1.00350    1.07346   1.00
H1       1.34933    1.04355    1.04513   1.00
H1       1.15056    0.99709    0.93768   1.00
C5       1.35535    0.94905    0.94690   1.00
H1       1.27747    0.95598    0.95536   1.00
H1       1.22230    0.99720    0.93726   1.00
H2       1.34837    0.95797    0.91651   1.00
H2       1.38747    0.95175    0.95052   1.00
N1       1.34395    0.90844    0.95343   1.00
C6       1.30810    0.89321    0.94830   1.00
C6       1.36757    0.87936    0.96530   1.00
C6       1.30873    0.85396    0.95718   1.00
C6       1.34656    0.84516    0.96800   1.00
H3       1.28281    0.90952    0.93865   1.00
H3       1.39831    0.88276    0.97179   1.00
H3       1.28436    0.83397    0.95586   1.00
H3       1.35758    0.81696    0.97683   1.00
H2       1.11228    1.00396    1.06724   1.00
H2       1.15001    0.97732    1.09163   1.00
N1       1.15523    1.03832    1.09531   1.00
C6       1.13078    1.06969    1.10685   1.00
C6       1.19285    1.04790    1.10978   1.00
C6       1.15277    1.09668    1.12713   1.00
C6       1.19091    1.08330    1.12891   1.00
H3       1.09992    1.07189    1.10053   1.00
H3       1.21876    1.03025    1.10589   1.00
H3       1.14205    1.12367    1.13944   1.00
H3       1.21505    1.09809    1.14281   1.00
C4       0.99984    0.77085    0.99965   1.00
C4       1.00016    0.72915    1.00035   1.00
C3       0.96470    0.79249    1.00150   1.00
C3       0.97479    0.70748    1.02465   1.00
C3       1.03491    0.79262    0.99793   1.00
C3       1.02542    0.70741    0.97596   1.00
C2       0.99985    0.85518    1.00007   1.00
C2       0.99985    0.64482    1.00007   1.00
C3a      0.96455    0.83401    1.00170   1.00
C3       0.97471    0.66618    1.02447   1.00
C3       1.03484    0.83389    0.99814   1.00
C3a      1.02543    0.66597    0.97569   1.00
H1       0.93717    0.77706    1.00248   1.00
H1       0.95508    0.72250    1.04425   1.00
C5       0.92654    0.85590    1.00350   1.00
H1       0.95487    0.65067    1.04355   1.00
H1       1.06232    0.84944    0.99709   1.00
C5       1.05310    0.64465    0.94905   1.00
H1       1.04464    0.72253    0.95598   1.00
H1       1.06274    0.77770    0.99720   1.00
H2       1.08349    0.65163    0.95797   1.00
H2       1.04948    0.61253    0.95175   1.00
N1       1.04657    0.65605    0.90844   1.00
C6       1.05170    0.69190    0.89321   1.00
C6       1.03470    0.63243    0.87936   1.00
C6       1.04282    0.69127    0.85396   1.00
C6       1.03200    0.65344    0.84516   1.00
H3       1.06135    0.71719    0.90952   1.00
H3       1.02821    0.60169    0.88276   1.00
H3       1.04414    0.71564    0.83397   1.00
H3       1.02317    0.64242    0.81696   1.00
H2       0.93276    0.88772    1.00396   1.00
H2       0.90837    0.84999    0.97732   1.00
N1       0.90469    0.84477    1.03832   1.00
C6       0.89315    0.86922    1.06969   1.00
C6       0.89022    0.80715    1.04790   1.00
C6       0.87287    0.84723    1.09668   1.00
C6       0.87109    0.80909    1.08330   1.00
H3       0.89947    0.90008    1.07189   1.00
H3       0.89411    0.78124    1.03025   1.00
H3       0.86056    0.85795    1.12367   1.00
H3       0.85719    0.78495    1.09809   1.00
C4       0.99965    0.99984    0.77085   1.00
C4       1.00035    1.00016    0.72915   1.00
C3       1.00150    0.96470    0.79249   1.00
C3       1.02465    0.97479    0.70748   1.00
C3       0.99793    1.03491    0.79262   1.00
C3       0.97596    1.02542    0.70741   1.00
C2       1.00007    0.99985    0.85518   1.00
C2       1.00007    0.99985    0.64482   1.00
C3a      1.00170    0.96455    0.83401   1.00
C3       1.02447    0.97471    0.66618   1.00
C3       0.99814    1.03484    0.83389   1.00
C3a      0.97569    1.02543    0.66597   1.00
H1       1.00248    0.93717    0.77706   1.00
H1       1.04425    0.95508    0.72250   1.00
C5       1.00350    0.92654    0.85590   1.00
H1       1.04355    0.95487    0.65067   1.00
H1       0.99709    1.06232    0.84944   1.00
C5       0.94905    1.05310    0.64465   1.00
H1       0.95598    1.04464    0.72253   1.00
H1       0.99720    1.06274    0.77770   1.00
H2       0.95797    1.08349    0.65163   1.00
H2       0.95175    1.04948    0.61253   1.00
N1       0.90844    1.04657    0.65605   1.00
C6       0.89321    1.05170    0.69190   1.00
C6       0.87936    1.03470    0.63243   1.00
C6       0.85396    1.04282    0.69127   1.00
C6       0.84516    1.03200    0.65344   1.00
H3       0.90952    1.06135    0.71719   1.00
H3       0.88276    1.02821    0.60169   1.00
H3       0.83397    1.04414    0.71564   1.00
H3       0.81696    1.02317    0.64242   1.00
H2       1.00396    0.93276    0.88772   1.00
H2       0.97732    0.90837    0.84999   1.00
N1       1.03832    0.90469    0.84477   1.00
C6       1.06969    0.89315    0.86922   1.00
C6       1.04790    0.89022    0.80715   1.00
C6       1.09668    0.87287    0.84723   1.00
C6       1.08330    0.87109    0.80909   1.00
H3       1.07189    0.89947    0.90008   1.00
H3       1.03025    0.89411    0.78124   1.00
H3       1.12367    0.86056    0.85795   1.00
H3       1.09809    0.85719    0.78495   1.00
C4       0.49965    0.50016    1.22915   1.00
C4       0.50035    0.49984    1.27085   1.00
C3       0.50150    0.53530    1.20751   1.00
C3       0.52465    0.52521    1.29252   1.00
C3       0.49793    0.46509    1.20738   1.00
C3       0.47596    0.47458    1.29259   1.00
C2       0.50007    0.50015    1.14482   1.00
C2       0.50007    0.50015    1.35518   1.00
C3a      0.50170    0.53545    1.16599   1.00
C3       0.52447    0.52529    1.33382   1.00
C3       0.49814    0.46516    1.16611   1.00
C3a      0.47569    0.47457    1.33403   1.00
H1       0.50248    0.56283    1.22294   1.00
H1       0.54425    0.54492    1.27750   1.00
C5       0.50350    0.57346    1.14410   1.00
H1       0.54355    0.54513    1.34933   1.00
H1       0.49709    0.43768    1.15056   1.00
C5       0.44905    0.44690    1.35535   1.00
H1       0.45598    0.45536    1.27747   1.00
H1       0.49720    0.43726    1.22230   1.00
H2       0.45797    0.41651    1.34837   1.00
H2       0.45175    0.45052    1.38747   1.00
N1       0.40844    0.45343    1.34395   1.00
C6       0.39321    0.44830    1.30810   1.00
C6       0.37936    0.46530    1.36757   1.00
C6       0.35396    0.45718    1.30873   1.00
C6       0.34516    0.46800    1.34656   1.00
H3       0.40952    0.43865    1.28281   1.00
H3       0.38276    0.47179    1.39831   1.00
H3       0.33397    0.45586    1.28436   1.00
H3       0.31696    0.47683    1.35758   1.00
H2       0.50396    0.56724    1.11228   1.00
H2       0.47732    0.59163    1.15001   1.00
N1       0.53832    0.59531    1.15523   1.00
C6       0.56969    0.60685    1.13078   1.00
C6       0.54790    0.60978    1.19285   1.00
C6       0.59668    0.62713    1.15277   1.00
C6       0.58330    0.62891    1.19091   1.00
H3       0.57189    0.60053    1.09992   1.00
H3       0.53025    0.60589    1.21876   1.00
H3       0.62367    0.63944    1.14205   1.00
H3       0.59809    0.64281    1.21505   1.00
C4       0.50016    0.72915    0.99965   1.00
C4       0.49984    0.77085    1.00035   1.00
C3       0.53530    0.70751    1.00150   1.00
C3       0.52521    0.79252    1.02465   1.00
C3       0.46509    0.70738    0.99793   1.00
C3       0.47458    0.79259    0.97596   1.00
C2       0.50015    0.64482    1.00007   1.00
C2       0.50015    0.85518    1.00007   1.00
C3a      0.53545    0.66599    1.00170   1.00
C3       0.52529    0.83382    1.02447   1.00
C3       0.46516    0.66611    0.99814   1.00
C3a      0.47457    0.83403    0.97569   1.00
H1       0.56283    0.72294    1.00248   1.00
H1       0.54492    0.77750    1.04425   1.00
C5       0.57346    0.64410    1.00350   1.00
H1       0.54513    0.84933    1.04355   1.00
H1       0.43768    0.65056    0.99709   1.00
C5       0.44690    0.85535    0.94905   1.00
H1       0.45536    0.77747    0.95598   1.00
H1       0.43726    0.72230    0.99720   1.00
H2       0.41651    0.84837    0.95797   1.00
H2       0.45052    0.88747    0.95175   1.00
N1       0.45343    0.84395    0.90844   1.00
C6       0.44830    0.80810    0.89321   1.00
C6       0.46530    0.86757    0.87936   1.00
C6       0.45718    0.80873    0.85396   1.00
C6       0.46800    0.84656    0.84516   1.00
H3       0.43865    0.78281    0.90952   1.00
H3       0.47179    0.89831    0.88276   1.00
H3       0.45586    0.78436    0.83397   1.00
H3       0.47683    0.85758    0.81696   1.00
H2       0.56724    0.61228    1.00396   1.00
H2       0.59163    0.65001    0.97732   1.00
N1       0.59531    0.65523    1.03832   1.00
C6       0.60685    0.63078    1.06969   1.00
C6       0.60978    0.69285    1.04790   1.00
C6       0.62713    0.65277    1.09668   1.00
C6       0.62891    0.69091    1.08330   1.00
H3       0.60053    0.59992    1.07189   1.00
H3       0.60589    0.71876    1.03025   1.00
H3       0.63944    0.64205    1.12367   1.00
H3       0.64281    0.71505    1.09809   1.00
C4       0.27085    0.49965    0.99984   1.00
C4       0.22915    0.50035    1.00016   1.00
C3       0.29249    0.50150    0.96470   1.00
C3       0.20748    0.52465    0.97479   1.00
C3       0.29262    0.49793    1.03491   1.00
C3       0.20741    0.47596    1.02542   1.00
C2       0.35518    0.50007    0.99985   1.00
C2       0.14482    0.50007    0.99985   1.00
C3a      0.33401    0.50170    0.96455   1.00
C3       0.16618    0.52447    0.97471   1.00
C3       0.33389    0.49814    1.03484   1.00
C3a      0.16597    0.47569    1.02543   1.00
H1       0.27706    0.50248    0.93717   1.00
H1       0.22250    0.54425    0.95508   1.00
C5       0.35590    0.50350    0.92654   1.00
H1       0.15067    0.54355    0.95487   1.00
H1       0.34944    0.49709    1.06232   1.00
C5       0.14465    0.44905    1.05310   1.00
H1       0.22253    0.45598    1.04464   1.00
H1       0.27770    0.49720    1.06274   1.00
H2       0.15163    0.45797    1.08349   1.00
H2       0.11253    0.45175    1.04948   1.00
N1       0.15605    0.40844    1.04657   1.00
C6       0.19190    0.39321    1.05170   1.00
C6       0.13243    0.37936    1.03470   1.00
C6       0.19127    0.35396    1.04282   1.00
C6       0.15344    0.34516    1.03200   1.00
H3       0.21719    0.40952    1.06135   1.00
H3       0.10169    0.38276    1.02821   1.00
H3       0.21564    0.33397    1.04414   1.00
H3       0.14242    0.31696    1.02317   1.00
H2       0.38772    0.50396    0.93276   1.00
H2       0.34999    0.47732    0.90837   1.00
N1       0.34477    0.53832    0.90469   1.00
C6       0.36922    0.56969    0.89315   1.00
C6       0.30715    0.54790    0.89022   1.00
C6       0.34723    0.59668    0.87287   1.00
C6       0.30909    0.58330    0.87109   1.00
H3       0.40008    0.57189    0.89947   1.00
H3       0.28124    0.53025    0.89411   1.00
H3       0.35795    0.62367    0.86056   1.00
H3       0.28495    0.59809    0.85719   1.00
C4       0.72915    0.49965    1.00016   1.00
C4       0.77085    0.50035    0.99984   1.00
C3       0.70751    0.50150    1.03530   1.00
C3       0.79252    0.52465    1.02521   1.00
C3       0.70738    0.49793    0.96509   1.00
C3       0.79259    0.47596    0.97458   1.00
C2       0.64482    0.50007    1.00015   1.00
C2       0.85518    0.50007    1.00015   1.00
C3a      0.66599    0.50170    1.03545   1.00
C3       0.83382    0.52447    1.02529   1.00
C3       0.66611    0.49814    0.96516   1.00
C3a      0.83403    0.47569    0.97457   1.00
H1       0.72294    0.50248    1.06283   1.00
H1       0.77750    0.54425    1.04492   1.00
C5       0.64410    0.50350    1.07346   1.00
H1       0.84933    0.54355    1.04513   1.00
H1       0.65056    0.49709    0.93768   1.00
C5       0.85535    0.44905    0.94690   1.00
H1       0.77747    0.45598    0.95536   1.00
H1       0.72230    0.49720    0.93726   1.00
H2       0.84837    0.45797    0.91651   1.00
H2       0.88747    0.45175    0.95052   1.00
N1       0.84395    0.40844    0.95343   1.00
C6       0.80810    0.39321    0.94830   1.00
C6       0.86757    0.37936    0.96530   1.00
C6       0.80873    0.35396    0.95718   1.00
C6       0.84656    0.34516    0.96800   1.00
H3       0.78281    0.40952    0.93865   1.00
H3       0.89831    0.38276    0.97179   1.00
H3       0.78436    0.33397    0.95586   1.00
H3       0.85758    0.31696    0.97683   1.00
H2       0.61228    0.50396    1.06724   1.00
H2       0.65001    0.47732    1.09163   1.00
N1       0.65523    0.53832    1.09531   1.00
C6       0.63078    0.56969    1.10685   1.00
C6       0.69285    0.54790    1.10978   1.00
C6       0.65277    0.59668    1.12713   1.00
C6       0.69091    0.58330    1.12891   1.00
H3       0.59992    0.57189    1.10053   1.00
H3       0.71876    0.53025    1.10589   1.00
H3       0.64205    0.62367    1.13944   1.00
H3       0.71505    0.59809    1.14281   1.00
C4       0.49984    0.27085    0.99965   1.00
C4       0.50016    0.22915    1.00035   1.00
C3       0.46470    0.29249    1.00150   1.00
C3       0.47479    0.20748    1.02465   1.00
C3       0.53491    0.29262    0.99793   1.00
C3       0.52542    0.20741    0.97596   1.00
C2       0.49985    0.35518    1.00007   1.00
C2       0.49985    0.14482    1.00007   1.00
C3a      0.46455    0.33401    1.00170   1.00
C3       0.47471    0.16618    1.02447   1.00
C3       0.53484    0.33389    0.99814   1.00
C3a      0.52543    0.16597    0.97569   1.00
H1       0.43717    0.27706    1.00248   1.00
H1       0.45508    0.22250    1.04425   1.00
C5       0.42654    0.35590    1.00350   1.00
H1       0.45487    0.15067    1.04355   1.00
H1       0.56232    0.34944    0.99709   1.00
C5       0.55310    0.14465    0.94905   1.00
H1       0.54464    0.22253    0.95598   1.00
H1       0.56274    0.27770    0.99720   1.00
H2       0.58349    0.15163    0.95797   1.00
H2       0.54948    0.11253    0.95175   1.00
N1       0.54657    0.15605    0.90844   1.00
C6       0.55170    0.19190    0.89321   1.00
C6       0.53470    0.13243    0.87936   1.00
C6       0.54282    0.19127    0.85396   1.00
C6       0.53200    0.15344    0.84516   1.00
H3       0.56135    0.21719    0.90952   1.00
H3       0.52821    0.10169    0.88276   1.00
H3       0.54414    0.21564    0.83397   1.00
H3       0.52317    0.14242    0.81696   1.00
H2       0.43276    0.38772    1.00396   1.00
H2       0.40837    0.34999    0.97732   1.00
N1       0.40469    0.34477    1.03832   1.00
C6       0.39315    0.36922    1.06969   1.00
C6       0.39022    0.30715    1.04790   1.00
C6       0.37287    0.34723    1.09668   1.00
C6       0.37109    0.30909    1.08330   1.00
H3       0.39947    0.40008    1.07189   1.00
H3       0.39411    0.28124    1.03025   1.00
H3       0.36056    0.35795    1.12367   1.00
H3       0.35719    0.28495    1.09809   1.00
C4       0.49965    0.49984    0.77085   1.00
C4       0.50035    0.50016    0.72915   1.00
C3       0.50150    0.46470    0.79249   1.00
C3       0.52465    0.47479    0.70748   1.00
C3       0.49793    0.53491    0.79262   1.00
C3       0.47596    0.52542    0.70741   1.00
C2       0.50007    0.49985    0.85518   1.00
C2       0.50007    0.49985    0.64482   1.00
C3a      0.50170    0.46455    0.83401   1.00
C3       0.52447    0.47471    0.66618   1.00
C3       0.49814    0.53484    0.83389   1.00
C3a      0.47569    0.52543    0.66597   1.00
H1       0.50248    0.43717    0.77706   1.00
H1       0.54425    0.45508    0.72250   1.00
C5       0.50350    0.42654    0.85590   1.00
H1       0.54355    0.45487    0.65067   1.00
H1       0.49709    0.56232    0.84944   1.00
C5       0.44905    0.55310    0.64465   1.00
H1       0.45598    0.54464    0.72253   1.00
H1       0.49720    0.56274    0.77770   1.00
H2       0.45797    0.58349    0.65163   1.00
H2       0.45175    0.54948    0.61253   1.00
N1       0.40844    0.54657    0.65605   1.00
C6       0.39321    0.55170    0.69190   1.00
C6       0.37936    0.53470    0.63243   1.00
C6       0.35396    0.54282    0.69127   1.00
C6       0.34516    0.53200    0.65344   1.00
H3       0.40952    0.56135    0.71719   1.00
H3       0.38276    0.52821    0.60169   1.00
H3       0.33397    0.54414    0.71564   1.00
H3       0.31696    0.52317    0.64242   1.00
H2       0.50396    0.43276    0.88772   1.00
H2       0.47732    0.40837    0.84999   1.00
N1       0.53832    0.40469    0.84477   1.00
C6       0.56969    0.39315    0.86922   1.00
C6       0.54790    0.39022    0.80715   1.00
C6       0.59668    0.37287    0.84723   1.00
C6       0.58330    0.37109    0.80909   1.00
H3       0.57189    0.39947    0.90008   1.00
H3       0.53025    0.39411    0.78124   1.00
H3       0.62367    0.36056    0.85795   1.00
H3       0.59809    0.35719    0.78495   1.00
C4       0.49965    1.00016    0.72915   1.00
C4       0.50035    0.99984    0.77085   1.00
C3       0.50150    1.03530    0.70751   1.00
C3       0.52465    1.02521    0.79252   1.00
C3       0.49793    0.96509    0.70738   1.00
C3       0.47596    0.97458    0.79259   1.00
C2       0.50007    1.00015    0.64482   1.00
C2       0.50007    1.00015    0.85518   1.00
C3a      0.50170    1.03545    0.66599   1.00
C3       0.52447    1.02529    0.83382   1.00
C3       0.49814    0.96516    0.66611   1.00
C3a      0.47569    0.97457    0.83403   1.00
H1       0.50248    1.06283    0.72294   1.00
H1       0.54425    1.04492    0.77750   1.00
C5       0.50350    1.07346    0.64410   1.00
H1       0.54355    1.04513    0.84933   1.00
H1       0.49709    0.93768    0.65056   1.00
C5       0.44905    0.94690    0.85535   1.00
H1       0.45598    0.95536    0.77747   1.00
H1       0.49720    0.93726    0.72230   1.00
H2       0.45797    0.91651    0.84837   1.00
H2       0.45175    0.95052    0.88747   1.00
N1       0.40844    0.95343    0.84395   1.00
C6       0.39321    0.94830    0.80810   1.00
C6       0.37936    0.96530    0.86757   1.00
C6       0.35396    0.95718    0.80873   1.00
C6       0.34516    0.96800    0.84656   1.00
H3       0.40952    0.93865    0.78281   1.00
H3       0.38276    0.97179    0.89831   1.00
H3       0.33397    0.95586    0.78436   1.00
H3       0.31696    0.97683    0.85758   1.00
H2       0.50396    1.06724    0.61228   1.00
H2       0.47732    1.09163    0.65001   1.00
N1       0.53832    1.09531    0.65523   1.00
C6       0.56969    1.10685    0.63078   1.00
C6       0.54790    1.10978    0.69285   1.00
C6       0.59668    1.12713    0.65277   1.00
C6       0.58330    1.12891    0.69091   1.00
H3       0.57189    1.10053    0.59992   1.00
H3       0.53025    1.10589    0.71876   1.00
H3       0.62367    1.13944    0.64205   1.00
H3       0.59809    1.14281    0.71505   1.00
C4       0.50016    1.22915    0.49965   1.00
C4       0.49984    1.27085    0.50035   1.00
C3       0.53530    1.20751    0.50150   1.00
C3       0.52521    1.29252    0.52465   1.00
C3       0.46509    1.20738    0.49793   1.00
C3       0.47458    1.29259    0.47596   1.00
C2       0.50015    1.14482    0.50007   1.00
C2       0.50015    1.35518    0.50007   1.00
C3a      0.53545    1.16599    0.50170   1.00
C3       0.52529    1.33382    0.52447   1.00
C3       0.46516    1.16611    0.49814   1.00
C3a      0.47457    1.33403    0.47569   1.00
H1       0.56283    1.22294    0.50248   1.00
H1       0.54492    1.27750    0.54425   1.00
C5       0.57346    1.14410    0.50350   1.00
H1       0.54513    1.34933    0.54355   1.00
H1       0.43768    1.15056    0.49709   1.00
C5       0.44690    1.35535    0.44905   1.00
H1       0.45536    1.27747    0.45598   1.00
H1       0.43726    1.22230    0.49720   1.00
H2       0.41651    1.34837    0.45797   1.00
H2       0.45052    1.38747    0.45175   1.00
N1       0.45343    1.34395    0.40844   1.00
C6       0.44830    1.30810    0.39321   1.00
C6       0.46530    1.36757    0.37936   1.00
C6       0.45718    1.30873    0.35396   1.00
C6       0.46800    1.34656    0.34516   1.00
H3       0.43865    1.28281    0.40952   1.00
H3       0.47179    1.39831    0.38276   1.00
H3       0.45586    1.28436    0.33397   1.00
H3       0.47683    1.35758    0.31696   1.00
H2       0.56724    1.11228    0.50396   1.00
H2       0.59163    1.15001    0.47732   1.00
N1       0.59531    1.15523    0.53832   1.00
C6       0.60685    1.13078    0.56969   1.00
C6       0.60978    1.19285    0.54790   1.00
C6       0.62713    1.15277    0.59668   1.00
C6       0.62891    1.19091    0.58330   1.00
H3       0.60053    1.09992    0.57189   1.00
H3       0.60589    1.21876    0.53025   1.00
H3       0.63944    1.14205    0.62367   1.00
H3       0.64281    1.21505    0.59809   1.00
C4       0.27085    0.99965    0.49984   1.00
C4       0.22915    1.00035    0.50016   1.00
C3       0.29249    1.00150    0.46470   1.00
C3       0.20748    1.02465    0.47479   1.00
C3       0.29262    0.99793    0.53491   1.00
C3       0.20741    0.97596    0.52542   1.00
C2       0.35518    1.00007    0.49985   1.00
C2       0.14482    1.00007    0.49985   1.00
C3a      0.33401    1.00170    0.46455   1.00
C3       0.16618    1.02447    0.47471   1.00
C3       0.33389    0.99814    0.53484   1.00
C3a      0.16597    0.97569    0.52543   1.00
H1       0.27706    1.00248    0.43717   1.00
H1       0.22250    1.04425    0.45508   1.00
C5       0.35590    1.00350    0.42654   1.00
H1       0.15067    1.04355    0.45487   1.00
H1       0.34944    0.99709    0.56232   1.00
C5       0.14465    0.94905    0.55310   1.00
H1       0.22253    0.95598    0.54464   1.00
H1       0.27770    0.99720    0.56274   1.00
H2       0.15163    0.95797    0.58349   1.00
H2       0.11253    0.95175    0.54948   1.00
N1       0.15605    0.90844    0.54657   1.00
C6       0.19190    0.89321    0.55170   1.00
C6       0.13243    0.87936    0.53470   1.00
C6       0.19127    0.85396    0.54282   1.00
C6       0.15344    0.84516    0.53200   1.00
H3       0.21719    0.90952    0.56135   1.00
H3       0.10169    0.88276    0.52821   1.00
H3       0.21564    0.83397    0.54414   1.00
H3       0.14242    0.81696    0.52317   1.00
H2       0.38772    1.00396    0.43276   1.00
H2       0.34999    0.97732    0.40837   1.00
N1       0.34477    1.03832    0.40469   1.00
C6       0.36922    1.06969    0.39315   1.00
C6       0.30715    1.04790    0.39022   1.00
C6       0.34723    1.09668    0.37287   1.00
C6       0.30909    1.08330    0.37109   1.00
H3       0.40008    1.07189    0.39947   1.00
H3       0.28124    1.03025    0.39411   1.00
H3       0.35795    1.12367    0.36056   1.00
H3       0.28495    1.09809    0.35719   1.00
C4       0.72915    0.99965    0.50016   1.00
C4       0.77085    1.00035    0.49984   1.00
C3       0.70751    1.00150    0.53530   1.00
C3       0.79252    1.02465    0.52521   1.00
C3       0.70738    0.99793    0.46509   1.00
C3       0.79259    0.97596    0.47458   1.00
C2       0.64482    1.00007    0.50015   1.00
C2       0.85518    1.00007    0.50015   1.00
C3a      0.66599    1.00170    0.53545   1.00
C3       0.83382    1.02447    0.52529   1.00
C3       0.66611    0.99814    0.46516   1.00
C3a      0.83403    0.97569    0.47457   1.00
H1       0.72294    1.00248    0.56283   1.00
H1       0.77750    1.04425    0.54492   1.00
C5       0.64410    1.00350    0.57346   1.00
H1       0.84933    1.04355    0.54513   1.00
H1       0.65056    0.99709    0.43768   1.00
C5       0.85535    0.94905    0.44690   1.00
H1       0.77747    0.95598    0.45536   1.00
H1       0.72230    0.99720    0.43726   1.00
H2       0.84837    0.95797    0.41651   1.00
H2       0.88747    0.95175    0.45052   1.00
N1       0.84395    0.90844    0.45343   1.00
C6       0.80810    0.89321    0.44830   1.00
C6       0.86757    0.87936    0.46530   1.00
C6       0.80873    0.85396    0.45718   1.00
C6       0.84656    0.84516    0.46800   1.00
H3       0.78281    0.90952    0.43865   1.00
H3       0.89831    0.88276    0.47179   1.00
H3       0.78436    0.83397    0.45586   1.00
H3       0.85758    0.81696    0.47683   1.00
H2       0.61228    1.00396    0.56724   1.00
H2       0.65001    0.97732    0.59163   1.00
N1       0.65523    1.03832    0.59531   1.00
C6       0.63078    1.06969    0.60685   1.00
C6       0.69285    1.04790    0.60978   1.00
C6       0.65277    1.09668    0.62713   1.00
C6       0.69091    1.08330    0.62891   1.00
H3       0.59992    1.07189    0.60053   1.00
H3       0.71876    1.03025    0.60589   1.00
H3       0.64205    1.12367    0.63944   1.00
H3       0.71505    1.09809    0.64281   1.00
C4       0.49984    0.77085    0.49965   1.00
C4       0.50016    0.72915    0.50035   1.00
C3       0.46470    0.79249    0.50150   1.00
C3       0.47479    0.70748    0.52465   1.00
C3       0.53491    0.79262    0.49793   1.00
C3       0.52542    0.70741    0.47596   1.00
C2       0.49985    0.85518    0.50007   1.00
C2       0.49985    0.64482    0.50007   1.00
C3a      0.46455    0.83401    0.50170   1.00
C3       0.47471    0.66618    0.52447   1.00
C3       0.53484    0.83389    0.49814   1.00
C3a      0.52543    0.66597    0.47569   1.00
H1       0.43717    0.77706    0.50248   1.00
H1       0.45508    0.72250    0.54425   1.00
C5       0.42654    0.85590    0.50350   1.00
H1       0.45487    0.65067    0.54355   1.00
H1       0.56232    0.84944    0.49709   1.00
C5       0.55310    0.64465    0.44905   1.00
H1       0.54464    0.72253    0.45598   1.00
H1       0.56274    0.77770    0.49720   1.00
H2       0.58349    0.65163    0.45797   1.00
H2       0.54948    0.61253    0.45175   1.00
N1       0.54657    0.65605    0.40844   1.00
C6       0.55170    0.69190    0.39321   1.00
C6       0.53470    0.63243    0.37936   1.00
C6       0.54282    0.69127    0.35396   1.00
C6       0.53200    0.65344    0.34516   1.00
H3       0.56135    0.71719    0.40952   1.00
H3       0.52821    0.60169    0.38276   1.00
H3       0.54414    0.71564    0.33397   1.00
H3       0.52317    0.64242    0.31696   1.00
H2       0.43276    0.88772    0.50396   1.00
H2       0.40837    0.84999    0.47732   1.00
N1       0.40469    0.84477    0.53832   1.00
C6       0.39315    0.86922    0.56969   1.00
C6       0.39022    0.80715    0.54790   1.00
C6       0.37287    0.84723    0.59668   1.00
C6       0.37109    0.80909    0.58330   1.00
H3       0.39947    0.90008    0.57189   1.00
H3       0.39411    0.78124    0.53025   1.00
H3       0.36056    0.85795    0.62367   1.00
H3       0.35719    0.78495    0.59809   1.00
C4       0.49965    0.99984    0.27085   1.00
C4       0.50035    1.00016    0.22915   1.00
C3       0.50150    0.96470    0.29249   1.00
C3       0.52465    0.97479    0.20748   1.00
C3       0.49793    1.03491    0.29262   1.00
C3       0.47596    1.02542    0.20741   1.00
C2       0.50007    0.99985    0.35518   1.00
C2       0.50007    0.99985    0.14482   1.00
C3a      0.50170    0.96455    0.33401   1.00
C3       0.52447    0.97471    0.16618   1.00
C3       0.49814    1.03484    0.33389   1.00
C3a      0.47569    1.02543    0.16597   1.00
H1       0.50248    0.93717    0.27706   1.00
H1       0.54425    0.95508    0.22250   1.00
C5       0.50350    0.92654    0.35590   1.00
H1       0.54355    0.95487    0.15067   1.00
H1       0.49709    1.06232    0.34944   1.00
C5       0.44905    1.05310    0.14465   1.00
H1       0.45598    1.04464    0.22253   1.00
H1       0.49720    1.06274    0.27770   1.00
H2       0.45797    1.08349    0.15163   1.00
H2       0.45175    1.04948    0.11253   1.00
N1       0.40844    1.04657    0.15605   1.00
C6       0.39321    1.05170    0.19190   1.00
C6       0.37936    1.03470    0.13243   1.00
C6       0.35396    1.04282    0.19127   1.00
C6       0.34516    1.03200    0.15344   1.00
H3       0.40952    1.06135    0.21719   1.00
H3       0.38276    1.02821    0.10169   1.00
H3       0.33397    1.04414    0.21564   1.00
H3       0.31696    1.02317    0.14242   1.00
H2       0.50396    0.93276    0.38772   1.00
H2       0.47732    0.90837    0.34999   1.00
N1       0.53832    0.90469    0.34477   1.00
C6       0.56969    0.89315    0.36922   1.00
C6       0.54790    0.89022    0.30715   1.00
C6       0.59668    0.87287    0.34723   1.00
C6       0.58330    0.87109    0.30909   1.00
H3       0.57189    0.89947    0.40008   1.00
H3       0.53025    0.89411    0.28124   1.00
H3       0.62367    0.86056    0.35795   1.00
H3       0.59809    0.85719    0.28495   1.00
C4       0.99965    0.50016    0.72915   1.00
C4       1.00035    0.49984    0.77085   1.00
C3       1.00150    0.53530    0.70751   1.00
C3       1.02465    0.52521    0.79252   1.00
C3       0.99793    0.46509    0.70738   1.00
C3       0.97596    0.47458    0.79259   1.00
C2       1.00007    0.50015    0.64482   1.00
C2       1.00007    0.50015    0.85518   1.00
C3a      1.00170    0.53545    0.66599   1.00
C3       1.02447    0.52529    0.83382   1.00
C3       0.99814    0.46516    0.66611   1.00
C3a      0.97569    0.47457    0.83403   1.00
H1       1.00248    0.56283    0.72294   1.00
H1       1.04425    0.54492    0.77750   1.00
C5       1.00350    0.57346    0.64410   1.00
H1       1.04355    0.54513    0.84933   1.00
H1       0.99709    0.43768    0.65056   1.00
C5       0.94905    0.44690    0.85535   1.00
H1       0.95598    0.45536    0.77747   1.00
H1       0.99720    0.43726    0.72230   1.00
H2       0.95797    0.41651    0.84837   1.00
H2       0.95175    0.45052    0.88747   1.00
N1       0.90844    0.45343    0.84395   1.00
C6       0.89321    0.44830    0.80810   1.00
C6       0.87936    0.46530    0.86757   1.00
C6       0.85396    0.45718    0.80873   1.00
C6       0.84516    0.46800    0.84656   1.00
H3       0.90952    0.43865    0.78281   1.00
H3       0.88276    0.47179    0.89831   1.00
H3       0.83397    0.45586    0.78436   1.00
H3       0.81696    0.47683    0.85758   1.00
H2       1.00396    0.56724    0.61228   1.00
H2       0.97732    0.59163    0.65001   1.00
N1       1.03832    0.59531    0.65523   1.00
C6       1.06969    0.60685    0.63078   1.00
C6       1.04790    0.60978    0.69285   1.00
C6       1.09668    0.62713    0.65277   1.00
C6       1.08330    0.62891    0.69091   1.00
H3       1.07189    0.60053    0.59992   1.00
H3       1.03025    0.60589    0.71876   1.00
H3       1.12367    0.63944    0.64205   1.00
H3       1.09809    0.64281    0.71505   1.00
C4       1.00016    0.72915    0.49965   1.00
C4       0.99984    0.77085    0.50035   1.00
C3       1.03530    0.70751    0.50150   1.00
C3       1.02521    0.79252    0.52465   1.00
C3       0.96509    0.70738    0.49793   1.00
C3       0.97458    0.79259    0.47596   1.00
C2       1.00015    0.64482    0.50007   1.00
C2       1.00015    0.85518    0.50007   1.00
C3a      1.03545    0.66599    0.50170   1.00
C3       1.02529    0.83382    0.52447   1.00
C3       0.96516    0.66611    0.49814   1.00
C3a      0.97457    0.83403    0.47569   1.00
H1       1.06283    0.72294    0.50248   1.00
H1       1.04492    0.77750    0.54425   1.00
C5       1.07346    0.64410    0.50350   1.00
H1       1.04513    0.84933    0.54355   1.00
H1       0.93768    0.65056    0.49709   1.00
C5       0.94690    0.85535    0.44905   1.00
H1       0.95536    0.77747    0.45598   1.00
H1       0.93726    0.72230    0.49720   1.00
H2       0.91651    0.84837    0.45797   1.00
H2       0.95052    0.88747    0.45175   1.00
N1       0.95343    0.84395    0.40844   1.00
C6       0.94830    0.80810    0.39321   1.00
C6       0.96530    0.86757    0.37936   1.00
C6       0.95718    0.80873    0.35396   1.00
C6       0.96800    0.84656    0.34516   1.00
H3       0.93865    0.78281    0.40952   1.00
H3       0.97179    0.89831    0.38276   1.00
H3       0.95586    0.78436    0.33397   1.00
H3       0.97683    0.85758    0.31696   1.00
H2       1.06724    0.61228    0.50396   1.00
H2       1.09163    0.65001    0.47732   1.00
N1       1.09531    0.65523    0.53832   1.00
C6       1.10685    0.63078    0.56969   1.00
C6       1.10978    0.69285    0.54790   1.00
C6       1.12713    0.65277    0.59668   1.00
C6       1.12891    0.69091    0.58330   1.00
H3       1.10053    0.59992    0.57189   1.00
H3       1.10589    0.71876    0.53025   1.00
H3       1.13944    0.64205    0.62367   1.00
H3       1.14281    0.71505    0.59809   1.00
C4       0.77085    0.49965    0.49984   1.00
C4       0.72915    0.50035    0.50016   1.00
C3       0.79249    0.50150    0.46470   1.00
C3       0.70748    0.52465    0.47479   1.00
C3       0.79262    0.49793    0.53491   1.00
C3       0.70741    0.47596    0.52542   1.00
C2       0.85518    0.50007    0.49985   1.00
C2       0.64482    0.50007    0.49985   1.00
C3a      0.83401    0.50170    0.46455   1.00
C3       0.66618    0.52447    0.47471   1.00
C3       0.83389    0.49814    0.53484   1.00
C3a      0.66597    0.47569    0.52543   1.00
H1       0.77706    0.50248    0.43717   1.00
H1       0.72250    0.54425    0.45508   1.00
C5       0.85590    0.50350    0.42654   1.00
H1       0.65067    0.54355    0.45487   1.00
H1       0.84944    0.49709    0.56232   1.00
C5       0.64465    0.44905    0.55310   1.00
H1       0.72253    0.45598    0.54464   1.00
H1       0.77770    0.49720    0.56274   1.00
H2       0.65163    0.45797    0.58349   1.00
H2       0.61253    0.45175    0.54948   1.00
N1       0.65605    0.40844    0.54657   1.00
C6       0.69190    0.39321    0.55170   1.00
C6       0.63243    0.37936    0.53470   1.00
C6       0.69127    0.35396    0.54282   1.00
C6       0.65344    0.34516    0.53200   1.00
H3       0.71719    0.40952    0.56135   1.00
H3       0.60169    0.38276    0.52821   1.00
H3       0.71564    0.33397    0.54414   1.00
H3       0.64242    0.31696    0.52317   1.00
H2       0.88772    0.50396    0.43276   1.00
H2       0.84999    0.47732    0.40837   1.00
N1       0.84477    0.53832    0.40469   1.00
C6       0.86922    0.56969    0.39315   1.00
C6       0.80715    0.54790    0.39022   1.00
C6       0.84723    0.59668    0.37287   1.00
C6       0.80909    0.58330    0.37109   1.00
H3       0.90008    0.57189    0.39947   1.00
H3       0.78124    0.53025    0.39411   1.00
H3       0.85795    0.62367    0.36056   1.00
H3       0.78495    0.59809    0.35719   1.00
C4       1.22915    0.49965    0.50016   1.00
C4       1.27085    0.50035    0.49984   1.00
C3       1.20751    0.50150    0.53530   1.00
C3       1.29252    0.52465    0.52521   1.00
C3       1.20738    0.49793    0.46509   1.00
C3       1.29259    0.47596    0.47458   1.00
C2       1.14482    0.50007    0.50015   1.00
C2       1.35518    0.50007    0.50015   1.00
C3a      1.16599    0.50170    0.53545   1.00
C3       1.33382    0.52447    0.52529   1.00
C3       1.16611    0.49814    0.46516   1.00
C3a      1.33403    0.47569    0.47457   1.00
H1       1.22294    0.50248    0.56283   1.00
H1       1.27750    0.54425    0.54492   1.00
C5       1.14410    0.50350    0.57346   1.00
H1       1.34933    0.54355    0.54513   1.00
H1       1.15056    0.49709    0.43768   1.00
C5       1.35535    0.44905    0.44690   1.00
H1       1.27747    0.45598    0.45536   1.00
H1       1.22230    0.49720    0.43726   1.00
H2       1.34837    0.45797    0.41651   1.00
H2       1.38747    0.45175    0.45052   1.00
N1       1.34395    0.40844    0.45343   1.00
C6       1.30810    0.39321    0.44830   1.00
C6       1.36757    0.37936    0.46530   1.00
C6       1.30873    0.35396    0.45718   1.00
C6       1.34656    0.34516    0.46800   1.00
H3       1.28281    0.40952    0.43865   1.00
H3       1.39831    0.38276    0.47179   1.00
H3       1.28436    0.33397    0.45586   1.00
H3       1.35758    0.31696    0.47683   1.00
H2       1.11228    0.50396    0.56724   1.00
H2       1.15001    0.47732    0.59163   1.00
N1       1.15523    0.53832    0.59531   1.00
C6       1.13078    0.56969    0.60685   1.00
C6       1.19285    0.54790    0.60978   1.00
C6       1.15277    0.59668    0.62713   1.00
C6       1.19091    0.58330    0.62891   1.00
H3       1.09992    0.57189    0.60053   1.00
H3       1.21876    0.53025    0.60589   1.00
H3       1.14205    0.62367    0.63944   1.00
H3       1.21505    0.59809    0.64281   1.00
C4       0.99984    0.27085    0.49965   1.00
C4       1.00016    0.22915    0.50035   1.00
C3       0.96470    0.29249    0.50150   1.00
C3       0.97479    0.20748    0.52465   1.00
C3       1.03491    0.29262    0.49793   1.00
C3       1.02542    0.20741    0.47596   1.00
C2       0.99985    0.35518    0.50007   1.00
C2       0.99985    0.14482    0.50007   1.00
C3a      0.96455    0.33401    0.50170   1.00
C3       0.97471    0.16618    0.52447   1.00
C3       1.03484    0.33389    0.49814   1.00
C3a      1.02543    0.16597    0.47569   1.00
H1       0.93717    0.27706    0.50248   1.00
H1       0.95508    0.22250    0.54425   1.00
C5       0.92654    0.35590    0.50350   1.00
H1       0.95487    0.15067    0.54355   1.00
H1       1.06232    0.34944    0.49709   1.00
C5       1.05310    0.14465    0.44905   1.00
H1       1.04464    0.22253    0.45598   1.00
H1       1.06274    0.27770    0.49720   1.00
H2       1.08349    0.15163    0.45797   1.00
H2       1.04948    0.11253    0.45175   1.00
N1       1.04657    0.15605    0.40844   1.00
C6       1.05170    0.19190    0.39321   1.00
C6       1.03470    0.13243    0.37936   1.00
C6       1.04282    0.19127    0.35396   1.00
C6       1.03200    0.15344    0.34516   1.00
H3       1.06135    0.21719    0.40952   1.00
H3       1.02821    0.10169    0.38276   1.00
H3       1.04414    0.21564    0.33397   1.00
H3       1.02317    0.14242    0.31696   1.00
H2       0.93276    0.38772    0.50396   1.00
H2       0.90837    0.34999    0.47732   1.00
N1       0.90469    0.34477    0.53832   1.00
C6       0.89315    0.36922    0.56969   1.00
C6       0.89022    0.30715    0.54790   1.00
C6       0.87287    0.34723    0.59668   1.00
C6       0.87109    0.30909    0.58330   1.00
H3       0.89947    0.40008    0.57189   1.00
H3       0.89411    0.28124    0.53025   1.00
H3       0.86056    0.35795    0.62367   1.00
H3       0.85719    0.28495    0.59809   1.00
C4       0.99965    0.49984    0.27085   1.00
C4       1.00035    0.50016    0.22915   1.00
C3       1.00150    0.46470    0.29249   1.00
C3       1.02465    0.47479    0.20748   1.00
C3       0.99793    0.53491    0.29262   1.00
C3       0.97596    0.52542    0.20741   1.00
C2       1.00007    0.49985    0.35518   1.00
C2       1.00007    0.49985    0.14482   1.00
C3a      1.00170    0.46455    0.33401   1.00
C3       1.02447    0.47471    0.16618   1.00
C3       0.99814    0.53484    0.33389   1.00
C3a      0.97569    0.52543    0.16597   1.00
H1       1.00248    0.43717    0.27706   1.00
H1       1.04425    0.45508    0.22250   1.00
C5       1.00350    0.42654    0.35590   1.00
H1       1.04355    0.45487    0.15067   1.00
H1       0.99709    0.56232    0.34944   1.00
C5       0.94905    0.55310    0.14465   1.00
H1       0.95598    0.54464    0.22253   1.00
H1       0.99720    0.56274    0.27770   1.00
H2       0.95797    0.58349    0.15163   1.00
H2       0.95175    0.54948    0.11253   1.00
N1       0.90844    0.54657    0.15605   1.00
C6       0.89321    0.55170    0.19190   1.00
C6       0.87936    0.53470    0.13243   1.00
C6       0.85396    0.54282    0.19127   1.00
C6       0.84516    0.53200    0.15344   1.00
H3       0.90952    0.56135    0.21719   1.00
H3       0.88276    0.52821    0.10169   1.00
H3       0.83397    0.54414    0.21564   1.00
H3       0.81696    0.52317    0.14242   1.00
H2       1.00396    0.43276    0.38772   1.00
H2       0.97732    0.40837    0.34999   1.00
N1       1.03832    0.40469    0.34477   1.00
C6       1.06969    0.39315    0.36922   1.00
C6       1.04790    0.39022    0.30715   1.00
C6       1.09668    0.37287    0.34723   1.00
C6       1.08330    0.37109    0.30909   1.00
H3       1.07189    0.39947    0.40008   1.00
H3       1.03025    0.39411    0.28124   1.00
H3       1.12367    0.36056    0.35795   1.00
H3       1.09809    0.35719    0.28495   1.00
