data_IRMOF10_SG202_interpen_Ligand1lp_label_i.

_audit_creation_method             'generated by an auxiliary program of Tobunporous'

_symmetry_space_group_name_H-M     'P 1'
_symmetry_Int_Tables_number        1
_symmetry_cell_setting             triclinic

_cell_length_a                    34.2800
_cell_length_b                    34.2800
_cell_length_c                    34.2800
_cell_angle_alpha                 90.0000
_cell_angle_beta                  90.0000
_cell_angle_gamma                 90.0000

loop_
_atom_site_label
_atom_site_fract_x
_atom_site_fract_y
_atom_site_fract_z
_atom_site_occupancy
O1       0.75000    0.75000    0.75000   1.00
Zn1      0.71720    0.78280    0.78280   1.00
Zn1      0.78280    0.71720    0.78280   1.00
Zn1      0.78280    0.78280    0.71720   1.00
Zn1      0.71720    0.71720    0.71720   1.00
O2       0.72650    0.77350    0.83820   1.00
O2       0.72650    0.83820    0.77350   1.00
O2       0.66180    0.77350    0.77350   1.00
O2       0.77350    0.72650    0.83820   1.00
O2       0.83820    0.72650    0.77350   1.00
O2       0.77350    0.66180    0.77350   1.00
O2       0.77350    0.83820    0.72650   1.00
O2       0.83820    0.77350    0.72650   1.00
O2       0.77350    0.77350    0.66180   1.00
O2       0.66180    0.72650    0.72650   1.00
O2       0.72650    0.66180    0.72650   1.00
O2       0.72650    0.72650    0.66180   1.00
C1       0.75000    0.75000    0.85520   1.00
C1       0.75000    0.85520    0.75000   1.00
C1       0.64480    0.75000    0.75000   1.00
C1       0.85520    0.75000    0.75000   1.00
C1       0.75000    0.64480    0.75000   1.00
C1       0.75000    0.75000    0.64480   1.00
O1       0.25000    0.25000    0.75000   1.00
Zn1      0.21720    0.28280    0.78280   1.00
Zn1      0.28280    0.21720    0.78280   1.00
Zn1      0.28280    0.28280    0.71720   1.00
Zn1      0.21720    0.21720    0.71720   1.00
O2       0.22650    0.27350    0.83820   1.00
O2       0.22650    0.33820    0.77350   1.00
O2       0.16180    0.27350    0.77350   1.00
O2       0.27350    0.22650    0.83820   1.00
O2       0.33820    0.22650    0.77350   1.00
O2       0.27350    0.16180    0.77350   1.00
O2       0.27350    0.33820    0.72650   1.00
O2       0.33820    0.27350    0.72650   1.00
O2       0.27350    0.27350    0.66180   1.00
O2       0.16180    0.22650    0.72650   1.00
O2       0.22650    0.16180    0.72650   1.00
O2       0.22650    0.22650    0.66180   1.00
C1       0.25000    0.25000    0.85520   1.00
C1       0.25000    0.35520    0.75000   1.00
C1       0.14480    0.25000    0.75000   1.00
C1       0.35520    0.25000    0.75000   1.00
C1       0.25000    0.14480    0.75000   1.00
C1       0.25000    0.25000    0.64480   1.00
O1       0.25000    0.75000    0.25000   1.00
Zn1      0.21720    0.78280    0.28280   1.00
Zn1      0.28280    0.71720    0.28280   1.00
Zn1      0.28280    0.78280    0.21720   1.00
Zn1      0.21720    0.71720    0.21720   1.00
O2       0.22650    0.77350    0.33820   1.00
O2       0.22650    0.83820    0.27350   1.00
O2       0.16180    0.77350    0.27350   1.00
O2       0.27350    0.72650    0.33820   1.00
O2       0.33820    0.72650    0.27350   1.00
O2       0.27350    0.66180    0.27350   1.00
O2       0.27350    0.83820    0.22650   1.00
O2       0.33820    0.77350    0.22650   1.00
O2       0.27350    0.77350    0.16180   1.00
O2       0.16180    0.72650    0.22650   1.00
O2       0.22650    0.66180    0.22650   1.00
O2       0.22650    0.72650    0.16180   1.00
C1       0.25000    0.75000    0.35520   1.00
C1       0.25000    0.85520    0.25000   1.00
C1       0.14480    0.75000    0.25000   1.00
C1       0.35520    0.75000    0.25000   1.00
C1       0.25000    0.64480    0.25000   1.00
C1       0.25000    0.75000    0.14480   1.00
O1       0.75000    0.25000    0.25000   1.00
Zn1      0.71720    0.28280    0.28280   1.00
Zn1      0.78280    0.21720    0.28280   1.00
Zn1      0.78280    0.28280    0.21720   1.00
Zn1      0.71720    0.21720    0.21720   1.00
O2       0.72650    0.27350    0.33820   1.00
O2       0.72650    0.33820    0.27350   1.00
O2       0.66180    0.27350    0.27350   1.00
O2       0.77350    0.22650    0.33820   1.00
O2       0.83820    0.22650    0.27350   1.00
O2       0.77350    0.16180    0.27350   1.00
O2       0.77350    0.33820    0.22650   1.00
O2       0.83820    0.27350    0.22650   1.00
O2       0.77350    0.27350    0.16180   1.00
O2       0.66180    0.22650    0.22650   1.00
O2       0.72650    0.16180    0.22650   1.00
O2       0.72650    0.22650    0.16180   1.00
C1       0.75000    0.25000    0.35520   1.00
C1       0.75000    0.35520    0.25000   1.00
C1       0.64480    0.25000    0.25000   1.00
C1       0.85520    0.25000    0.25000   1.00
C1       0.75000    0.14480    0.25000   1.00
C1       0.75000    0.25000    0.14480   1.00
O1       0.25000    0.25000    0.25000   1.00
Zn1      0.28280    0.21720    0.21720   1.00
Zn1      0.21720    0.28280    0.21720   1.00
Zn1      0.21720    0.21720    0.28280   1.00
Zn1      0.28280    0.28280    0.28280   1.00
O2       0.27350    0.22650    0.16180   1.00
O2       0.27350    0.16180    0.22650   1.00
O2       0.33820    0.22650    0.22650   1.00
O2       0.22650    0.27350    0.16180   1.00
O2       0.16180    0.27350    0.22650   1.00
O2       0.22650    0.33820    0.22650   1.00
O2       0.22650    0.16180    0.27350   1.00
O2       0.16180    0.22650    0.27350   1.00
O2       0.22650    0.22650    0.33820   1.00
O2       0.33820    0.27350    0.27350   1.00
O2       0.27350    0.33820    0.27350   1.00
O2       0.27350    0.27350    0.33820   1.00
C1       0.25000    0.25000    0.14480   1.00
C1       0.25000    0.14480    0.25000   1.00
C1       0.35520    0.25000    0.25000   1.00
C1       0.14480    0.25000    0.25000   1.00
C1       0.25000    0.35520    0.25000   1.00
C1       0.25000    0.25000    0.35520   1.00
O1       0.75000    0.75000    0.25000   1.00
Zn1      0.78280    0.71720    0.21720   1.00
Zn1      0.71720    0.78280    0.21720   1.00
Zn1      0.71720    0.71720    0.28280   1.00
Zn1      0.78280    0.78280    0.28280   1.00
O2       0.77350    0.72650    0.16180   1.00
O2       0.77350    0.66180    0.22650   1.00
O2       0.83820    0.72650    0.22650   1.00
O2       0.72650    0.77350    0.16180   1.00
O2       0.66180    0.77350    0.22650   1.00
O2       0.72650    0.83820    0.22650   1.00
O2       0.72650    0.66180    0.27350   1.00
O2       0.66180    0.72650    0.27350   1.00
O2       0.72650    0.72650    0.33820   1.00
O2       0.83820    0.77350    0.27350   1.00
O2       0.77350    0.83820    0.27350   1.00
O2       0.77350    0.77350    0.33820   1.00
C1       0.75000    0.75000    0.14480   1.00
C1       0.75000    0.64480    0.25000   1.00
C1       0.85520    0.75000    0.25000   1.00
C1       0.64480    0.75000    0.25000   1.00
C1       0.75000    0.85520    0.25000   1.00
C1       0.75000    0.75000    0.35520   1.00
O1       0.75000    0.25000    0.75000   1.00
Zn1      0.78280    0.21720    0.71720   1.00
Zn1      0.71720    0.28280    0.71720   1.00
Zn1      0.71720    0.21720    0.78280   1.00
Zn1      0.78280    0.28280    0.78280   1.00
O2       0.77350    0.22650    0.66180   1.00
O2       0.77350    0.16180    0.72650   1.00
O2       0.83820    0.22650    0.72650   1.00
O2       0.72650    0.27350    0.66180   1.00
O2       0.66180    0.27350    0.72650   1.00
O2       0.72650    0.33820    0.72650   1.00
O2       0.72650    0.16180    0.77350   1.00
O2       0.66180    0.22650    0.77350   1.00
O2       0.72650    0.22650    0.83820   1.00
O2       0.83820    0.27350    0.77350   1.00
O2       0.77350    0.33820    0.77350   1.00
O2       0.77350    0.27350    0.83820   1.00
C1       0.75000    0.25000    0.64480   1.00
C1       0.75000    0.14480    0.75000   1.00
C1       0.85520    0.25000    0.75000   1.00
C1       0.64480    0.25000    0.75000   1.00
C1       0.75000    0.35520    0.75000   1.00
C1       0.75000    0.25000    0.85520   1.00
O1       0.25000    0.75000    0.75000   1.00
Zn1      0.28280    0.71720    0.71720   1.00
Zn1      0.21720    0.78280    0.71720   1.00
Zn1      0.21720    0.71720    0.78280   1.00
Zn1      0.28280    0.78280    0.78280   1.00
O2       0.27350    0.72650    0.66180   1.00
O2       0.27350    0.66180    0.72650   1.00
O2       0.33820    0.72650    0.72650   1.00
O2       0.22650    0.77350    0.66180   1.00
O2       0.16180    0.77350    0.72650   1.00
O2       0.22650    0.83820    0.72650   1.00
O2       0.22650    0.66180    0.77350   1.00
O2       0.16180    0.72650    0.77350   1.00
O2       0.22650    0.72650    0.83820   1.00
O2       0.33820    0.77350    0.77350   1.00
O2       0.27350    0.83820    0.77350   1.00
O2       0.27350    0.77350    0.83820   1.00
C1       0.25000    0.75000    0.64480   1.00
C1       0.25000    0.64480    0.75000   1.00
C1       0.35520    0.75000    0.75000   1.00
C1       0.14480    0.75000    0.75000   1.00
C1       0.25000    0.85520    0.75000   1.00
C1       0.25000    0.75000    0.85520   1.00
O1       1.00000    1.00000    1.00000   1.00
Zn1      0.96720    1.03280    1.03280   1.00
Zn1      1.03280    0.96720    1.03280   1.00
Zn1      1.03280    1.03280    0.96720   1.00
Zn1      0.96720    0.96720    0.96720   1.00
O2       0.97650    1.02350    1.08820   1.00
O2       0.97650    1.08820    1.02350   1.00
O2       0.91180    1.02350    1.02350   1.00
O2       1.02350    0.97650    1.08820   1.00
O2       1.08820    0.97650    1.02350   1.00
O2       1.02350    0.91180    1.02350   1.00
O2       1.02350    1.08820    0.97650   1.00
O2       1.08820    1.02350    0.97650   1.00
O2       1.02350    1.02350    0.91180   1.00
O2       0.91180    0.97650    0.97650   1.00
O2       0.97650    0.91180    0.97650   1.00
O2       0.97650    0.97650    0.91180   1.00
C1       1.00000    1.00000    1.10520   1.00
C1       1.00000    1.10520    1.00000   1.00
C1       0.89480    1.00000    1.00000   1.00
C1       1.10520    1.00000    1.00000   1.00
C1       1.00000    0.89480    1.00000   1.00
C1       1.00000    1.00000    0.89480   1.00
O1       0.50000    0.50000    1.00000   1.00
Zn1      0.46720    0.53280    1.03280   1.00
Zn1      0.53280    0.46720    1.03280   1.00
Zn1      0.53280    0.53280    0.96720   1.00
Zn1      0.46720    0.46720    0.96720   1.00
O2       0.47650    0.52350    1.08820   1.00
O2       0.47650    0.58820    1.02350   1.00
O2       0.41180    0.52350    1.02350   1.00
O2       0.52350    0.47650    1.08820   1.00
O2       0.58820    0.47650    1.02350   1.00
O2       0.52350    0.41180    1.02350   1.00
O2       0.52350    0.58820    0.97650   1.00
O2       0.58820    0.52350    0.97650   1.00
O2       0.52350    0.52350    0.91180   1.00
O2       0.41180    0.47650    0.97650   1.00
O2       0.47650    0.41180    0.97650   1.00
O2       0.47650    0.47650    0.91180   1.00
C1       0.50000    0.50000    1.10520   1.00
C1       0.50000    0.60520    1.00000   1.00
C1       0.39480    0.50000    1.00000   1.00
C1       0.60520    0.50000    1.00000   1.00
C1       0.50000    0.39480    1.00000   1.00
C1       0.50000    0.50000    0.89480   1.00
O1       0.50000    1.00000    0.50000   1.00
Zn1      0.46720    1.03280    0.53280   1.00
Zn1      0.53280    0.96720    0.53280   1.00
Zn1      0.53280    1.03280    0.46720   1.00
Zn1      0.46720    0.96720    0.46720   1.00
O2       0.47650    1.02350    0.58820   1.00
O2       0.47650    1.08820    0.52350   1.00
O2       0.41180    1.02350    0.52350   1.00
O2       0.52350    0.97650    0.58820   1.00
O2       0.58820    0.97650    0.52350   1.00
O2       0.52350    0.91180    0.52350   1.00
O2       0.52350    1.08820    0.47650   1.00
O2       0.58820    1.02350    0.47650   1.00
O2       0.52350    1.02350    0.41180   1.00
O2       0.41180    0.97650    0.47650   1.00
O2       0.47650    0.91180    0.47650   1.00
O2       0.47650    0.97650    0.41180   1.00
C1       0.50000    1.00000    0.60520   1.00
C1       0.50000    1.10520    0.50000   1.00
C1       0.39480    1.00000    0.50000   1.00
C1       0.60520    1.00000    0.50000   1.00
C1       0.50000    0.89480    0.50000   1.00
C1       0.50000    1.00000    0.39480   1.00
O1       1.00000    0.50000    0.50000   1.00
Zn1      0.96720    0.53280    0.53280   1.00
Zn1      1.03280    0.46720    0.53280   1.00
Zn1      1.03280    0.53280    0.46720   1.00
Zn1      0.96720    0.46720    0.46720   1.00
O2       0.97650    0.52350    0.58820   1.00
O2       0.97650    0.58820    0.52350   1.00
O2       0.91180    0.52350    0.52350   1.00
O2       1.02350    0.47650    0.58820   1.00
O2       1.08820    0.47650    0.52350   1.00
O2       1.02350    0.41180    0.52350   1.00
O2       1.02350    0.58820    0.47650   1.00
O2       1.08820    0.52350    0.47650   1.00
O2       1.02350    0.52350    0.41180   1.00
O2       0.91180    0.47650    0.47650   1.00
O2       0.97650    0.41180    0.47650   1.00
O2       0.97650    0.47650    0.41180   1.00
C1       1.00000    0.50000    0.60520   1.00
C1       1.00000    0.60520    0.50000   1.00
C1       0.89480    0.50000    0.50000   1.00
C1       1.10520    0.50000    0.50000   1.00
C1       1.00000    0.39480    0.50000   1.00
C1       1.00000    0.50000    0.39480   1.00
O1       0.50000    0.50000    0.50000   1.00
Zn1      0.53280    0.46720    0.46720   1.00
Zn1      0.46720    0.53280    0.46720   1.00
Zn1      0.46720    0.46720    0.53280   1.00
Zn1      0.53280    0.53280    0.53280   1.00
O2       0.52350    0.47650    0.41180   1.00
O2       0.52350    0.41180    0.47650   1.00
O2       0.58820    0.47650    0.47650   1.00
O2       0.47650    0.52350    0.41180   1.00
O2       0.41180    0.52350    0.47650   1.00
O2       0.47650    0.58820    0.47650   1.00
O2       0.47650    0.41180    0.52350   1.00
O2       0.41180    0.47650    0.52350   1.00
O2       0.47650    0.47650    0.58820   1.00
O2       0.58820    0.52350    0.52350   1.00
O2       0.52350    0.58820    0.52350   1.00
O2       0.52350    0.52350    0.58820   1.00
C1       0.50000    0.50000    0.39480   1.00
C1       0.50000    0.39480    0.50000   1.00
C1       0.60520    0.50000    0.50000   1.00
C1       0.39480    0.50000    0.50000   1.00
C1       0.50000    0.60520    0.50000   1.00
C1       0.50000    0.50000    0.60520   1.00
O1       1.00000    1.00000    0.50000   1.00
Zn1      1.03280    0.96720    0.46720   1.00
Zn1      0.96720    1.03280    0.46720   1.00
Zn1      0.96720    0.96720    0.53280   1.00
Zn1      1.03280    1.03280    0.53280   1.00
O2       1.02350    0.97650    0.41180   1.00
O2       1.02350    0.91180    0.47650   1.00
O2       1.08820    0.97650    0.47650   1.00
O2       0.97650    1.02350    0.41180   1.00
O2       0.91180    1.02350    0.47650   1.00
O2       0.97650    1.08820    0.47650   1.00
O2       0.97650    0.91180    0.52350   1.00
O2       0.91180    0.97650    0.52350   1.00
O2       0.97650    0.97650    0.58820   1.00
O2       1.08820    1.02350    0.52350   1.00
O2       1.02350    1.08820    0.52350   1.00
O2       1.02350    1.02350    0.58820   1.00
C1       1.00000    1.00000    0.39480   1.00
C1       1.00000    0.89480    0.50000   1.00
C1       1.10520    1.00000    0.50000   1.00
C1       0.89480    1.00000    0.50000   1.00
C1       1.00000    1.10520    0.50000   1.00
C1       1.00000    1.00000    0.60520   1.00
O1       1.00000    0.50000    1.00000   1.00
Zn1      1.03280    0.46720    0.96720   1.00
Zn1      0.96720    0.53280    0.96720   1.00
Zn1      0.96720    0.46720    1.03280   1.00
Zn1      1.03280    0.53280    1.03280   1.00
O2       1.02350    0.47650    0.91180   1.00
O2       1.02350    0.41180    0.97650   1.00
O2       1.08820    0.47650    0.97650   1.00
O2       0.97650    0.52350    0.91180   1.00
O2       0.91180    0.52350    0.97650   1.00
O2       0.97650    0.58820    0.97650   1.00
O2       0.97650    0.41180    1.02350   1.00
O2       0.91180    0.47650    1.02350   1.00
O2       0.97650    0.47650    1.08820   1.00
O2       1.08820    0.52350    1.02350   1.00
O2       1.02350    0.58820    1.02350   1.00
O2       1.02350    0.52350    1.08820   1.00
C1       1.00000    0.50000    0.89480   1.00
C1       1.00000    0.39480    1.00000   1.00
C1       1.10520    0.50000    1.00000   1.00
C1       0.89480    0.50000    1.00000   1.00
C1       1.00000    0.60520    1.00000   1.00
C1       1.00000    0.50000    1.10520   1.00
O1       0.50000    1.00000    1.00000   1.00
Zn1      0.53280    0.96720    0.96720   1.00
Zn1      0.46720    1.03280    0.96720   1.00
Zn1      0.46720    0.96720    1.03280   1.00
Zn1      0.53280    1.03280    1.03280   1.00
O2       0.52350    0.97650    0.91180   1.00
O2       0.52350    0.91180    0.97650   1.00
O2       0.58820    0.97650    0.97650   1.00
O2       0.47650    1.02350    0.91180   1.00
O2       0.41180    1.02350    0.97650   1.00
O2       0.47650    1.08820    0.97650   1.00
O2       0.47650    0.91180    1.02350   1.00
O2       0.41180    0.97650    1.02350   1.00
O2       0.47650    0.97650    1.08820   1.00
O2       0.58820    1.02350    1.02350   1.00
O2       0.52350    1.08820    1.02350   1.00
O2       0.52350    1.02350    1.08820   1.00
C1       0.50000    1.00000    0.89480   1.00
C1       0.50000    0.89480    1.00000   1.00
C1       0.60520    1.00000    1.00000   1.00
C1       0.39480    1.00000    1.00000   1.00
C1       0.50000    1.10520    1.00000   1.00
C1       0.50000    1.00000    1.10520   1.00
C2       0.75154    0.75256    0.89757   1.00
C3a      0.78212    0.76942    0.91884   1.00
H1       0.80622    0.78324    0.90369   1.00
C3a      0.72035    0.73468    0.91704   1.00
H1       0.69673    0.72166    0.90051   1.00
C3b      0.78185    0.76860    0.95938   1.00
C5       0.81519    0.78700    0.98144   1.00
H2       0.82990    0.76481    0.99984   1.00
H2       0.83737    0.79981    0.96161   1.00
H2       0.80411    0.81062    1.00060   1.00
C3b      0.71940    0.73348    0.95756   1.00
C5       0.68543    0.71402    0.97767   1.00
H2       0.67015    0.73528    0.99670   1.00
H2       0.66387    0.70223    0.95655   1.00
H2       0.69594    0.68947    0.99594   1.00
C4       0.75032    0.75053    0.97873   1.00
C4       0.74968    0.74947    1.02127   1.00
C3b      0.76695    0.71774    1.04101   1.00
C5       0.78622    0.68461    1.01937   1.00
H2       0.81058    0.69586    1.00129   1.00
H2       0.79822    0.66223    1.03949   1.00
H2       0.76477    0.67010    0.99995   1.00
C3b      0.73180    0.78019    1.04204   1.00
C5       0.71317    0.81437    1.02152   1.00
H2       0.68937    0.80405    1.00217   1.00
H2       0.70055    0.83573    1.04235   1.00
H2       0.73517    0.82982    1.00350   1.00
C3a      0.76615    0.71706    1.08155   1.00
H1       0.77934    0.69281    1.09700   1.00
C3a      0.73138    0.77883    1.08257   1.00
H1       0.71771    0.80229    1.09881   1.00
C2       0.74846    0.74744    1.10243   1.00
C2       0.75256    0.89757    0.75154   1.00
C3a      0.76942    0.91884    0.78212   1.00
H1       0.78324    0.90369    0.80622   1.00
C3a      0.73468    0.91704    0.72035   1.00
H1       0.72166    0.90051    0.69673   1.00
C3b      0.76860    0.95938    0.78185   1.00
C5       0.78700    0.98144    0.81519   1.00
H2       0.76481    0.99984    0.82990   1.00
H2       0.79981    0.96161    0.83737   1.00
H2       0.81062    1.00060    0.80411   1.00
C3b      0.73348    0.95756    0.71940   1.00
C5       0.71402    0.97767    0.68543   1.00
H2       0.73528    0.99670    0.67015   1.00
H2       0.70223    0.95655    0.66387   1.00
H2       0.68947    0.99594    0.69594   1.00
C4       0.75053    0.97873    0.75032   1.00
C4       0.74947    1.02127    0.74968   1.00
C3b      0.71774    1.04101    0.76695   1.00
C5       0.68461    1.01937    0.78622   1.00
H2       0.69586    1.00129    0.81058   1.00
H2       0.66223    1.03949    0.79822   1.00
H2       0.67010    0.99995    0.76477   1.00
C3b      0.78019    1.04204    0.73180   1.00
C5       0.81437    1.02152    0.71317   1.00
H2       0.80405    1.00217    0.68937   1.00
H2       0.83573    1.04235    0.70055   1.00
H2       0.82982    1.00350    0.73517   1.00
C3a      0.71706    1.08155    0.76615   1.00
H1       0.69281    1.09700    0.77934   1.00
C3a      0.77883    1.08257    0.73138   1.00
H1       0.80229    1.09881    0.71771   1.00
C2       0.74744    1.10243    0.74846   1.00
C2       0.60243    0.75154    0.74744   1.00
C3a      0.58116    0.78212    0.73058   1.00
H1       0.59631    0.80622    0.71676   1.00
C3a      0.58296    0.72035    0.76532   1.00
H1       0.59949    0.69673    0.77834   1.00
C3b      0.54062    0.78185    0.73140   1.00
C5       0.51856    0.81519    0.71300   1.00
H2       0.50016    0.82990    0.73519   1.00
H2       0.53839    0.83737    0.70019   1.00
H2       0.49940    0.80411    0.68938   1.00
C3b      0.54244    0.71940    0.76652   1.00
C5       0.52233    0.68543    0.78598   1.00
H2       0.50330    0.67015    0.76472   1.00
H2       0.54345    0.66387    0.79777   1.00
H2       0.50406    0.69594    0.81053   1.00
C4       0.52127    0.75032    0.74947   1.00
C4       0.47873    0.74968    0.75053   1.00
C3b      0.45899    0.76695    0.78226   1.00
C5       0.48063    0.78622    0.81539   1.00
H2       0.49871    0.81058    0.80414   1.00
H2       0.46051    0.79822    0.83777   1.00
H2       0.50005    0.76477    0.82990   1.00
C3b      0.45796    0.73180    0.71981   1.00
C5       0.47848    0.71317    0.68563   1.00
H2       0.49783    0.68937    0.69595   1.00
H2       0.45765    0.70055    0.66427   1.00
H2       0.49650    0.73517    0.67018   1.00
C3a      0.41845    0.76615    0.78294   1.00
H1       0.40300    0.77934    0.80719   1.00
C3a      0.41743    0.73138    0.72117   1.00
H1       0.40119    0.71771    0.69771   1.00
C2       0.39757    0.74846    0.75256   1.00
C2       0.89757    0.75154    0.75256   1.00
C3a      0.91884    0.78212    0.76942   1.00
H1       0.90369    0.80622    0.78324   1.00
C3a      0.91704    0.72035    0.73468   1.00
H1       0.90051    0.69673    0.72166   1.00
C3b      0.95938    0.78185    0.76860   1.00
C5       0.98144    0.81519    0.78700   1.00
H2       0.99984    0.82990    0.76481   1.00
H2       0.96161    0.83737    0.79981   1.00
H2       1.00060    0.80411    0.81062   1.00
C3b      0.95756    0.71940    0.73348   1.00
C5       0.97767    0.68543    0.71402   1.00
H2       0.99670    0.67015    0.73528   1.00
H2       0.95655    0.66387    0.70223   1.00
H2       0.99594    0.69594    0.68947   1.00
C4       0.97873    0.75032    0.75053   1.00
C4       1.02127    0.74968    0.74947   1.00
C3b      1.04101    0.76695    0.71774   1.00
C5       1.01937    0.78622    0.68461   1.00
H2       1.00129    0.81058    0.69586   1.00
H2       1.03949    0.79822    0.66223   1.00
H2       0.99995    0.76477    0.67010   1.00
C3b      1.04204    0.73180    0.78019   1.00
C5       1.02152    0.71317    0.81437   1.00
H2       1.00217    0.68937    0.80405   1.00
H2       1.04235    0.70055    0.83573   1.00
H2       1.00350    0.73517    0.82982   1.00
C3a      1.08155    0.76615    0.71706   1.00
H1       1.09700    0.77934    0.69281   1.00
C3a      1.08257    0.73138    0.77883   1.00
H1       1.09881    0.71771    0.80229   1.00
C2       1.10243    0.74846    0.74744   1.00
C2       0.74744    0.60243    0.75154   1.00
C3a      0.73058    0.58116    0.78212   1.00
H1       0.71676    0.59631    0.80622   1.00
C3a      0.76532    0.58296    0.72035   1.00
H1       0.77834    0.59949    0.69673   1.00
C3b      0.73140    0.54062    0.78185   1.00
C5       0.71300    0.51856    0.81519   1.00
H2       0.73519    0.50016    0.82990   1.00
H2       0.70019    0.53839    0.83737   1.00
H2       0.68938    0.49940    0.80411   1.00
C3b      0.76652    0.54244    0.71940   1.00
C5       0.78598    0.52233    0.68543   1.00
H2       0.76472    0.50330    0.67015   1.00
H2       0.79777    0.54345    0.66387   1.00
H2       0.81053    0.50406    0.69594   1.00
C4       0.74947    0.52127    0.75032   1.00
C4       0.75053    0.47873    0.74968   1.00
C3b      0.78226    0.45899    0.76695   1.00
C5       0.81539    0.48063    0.78622   1.00
H2       0.80414    0.49871    0.81058   1.00
H2       0.83777    0.46051    0.79822   1.00
H2       0.82990    0.50005    0.76477   1.00
C3b      0.71981    0.45796    0.73180   1.00
C5       0.68563    0.47848    0.71317   1.00
H2       0.69595    0.49783    0.68937   1.00
H2       0.66427    0.45765    0.70055   1.00
H2       0.67018    0.49650    0.73517   1.00
C3a      0.78294    0.41845    0.76615   1.00
H1       0.80719    0.40300    0.77934   1.00
C3a      0.72117    0.41743    0.73138   1.00
H1       0.69771    0.40119    0.71771   1.00
C2       0.75256    0.39757    0.74846   1.00
C2       0.75154    0.74744    0.60243   1.00
C3a      0.78212    0.73058    0.58116   1.00
H1       0.80622    0.71676    0.59631   1.00
C3a      0.72035    0.76532    0.58296   1.00
H1       0.69673    0.77834    0.59949   1.00
C3b      0.78185    0.73140    0.54062   1.00
C5       0.81519    0.71300    0.51856   1.00
H2       0.82990    0.73519    0.50016   1.00
H2       0.83737    0.70019    0.53839   1.00
H2       0.80411    0.68938    0.49940   1.00
C3b      0.71940    0.76652    0.54244   1.00
C5       0.68543    0.78598    0.52233   1.00
H2       0.67015    0.76472    0.50330   1.00
H2       0.66387    0.79777    0.54345   1.00
H2       0.69594    0.81053    0.50406   1.00
C4       0.75032    0.74947    0.52127   1.00
C4       0.74968    0.75053    0.47873   1.00
C3b      0.76695    0.78226    0.45899   1.00
C5       0.78622    0.81539    0.48063   1.00
H2       0.81058    0.80414    0.49871   1.00
H2       0.79822    0.83777    0.46051   1.00
H2       0.76477    0.82990    0.50005   1.00
C3b      0.73180    0.71981    0.45796   1.00
C5       0.71317    0.68563    0.47848   1.00
H2       0.68937    0.69595    0.49783   1.00
H2       0.70055    0.66427    0.45765   1.00
H2       0.73517    0.67018    0.49650   1.00
C3a      0.76615    0.78294    0.41845   1.00
H1       0.77934    0.80719    0.40300   1.00
C3a      0.73138    0.72117    0.41743   1.00
H1       0.71771    0.69771    0.40119   1.00
C2       0.74846    0.75256    0.39757   1.00
C2       0.25154    0.25256    0.89757   1.00
C3a      0.28212    0.26942    0.91884   1.00
H1       0.30622    0.28324    0.90369   1.00
C3a      0.22035    0.23468    0.91704   1.00
H1       0.19673    0.22166    0.90051   1.00
C3b      0.28185    0.26860    0.95938   1.00
C5       0.31519    0.28700    0.98144   1.00
H2       0.32990    0.26481    0.99984   1.00
H2       0.33737    0.29981    0.96161   1.00
H2       0.30411    0.31062    1.00060   1.00
C3b      0.21940    0.23348    0.95756   1.00
C5       0.18543    0.21402    0.97767   1.00
H2       0.17015    0.23528    0.99670   1.00
H2       0.16387    0.20223    0.95655   1.00
H2       0.19594    0.18947    0.99594   1.00
C4       0.25032    0.25053    0.97873   1.00
C4       0.24968    0.24947    1.02127   1.00
C3b      0.26695    0.21774    1.04101   1.00
C5       0.28622    0.18461    1.01937   1.00
H2       0.31058    0.19586    1.00129   1.00
H2       0.29822    0.16223    1.03949   1.00
H2       0.26477    0.17010    0.99995   1.00
C3b      0.23180    0.28019    1.04204   1.00
C5       0.21317    0.31437    1.02152   1.00
H2       0.18937    0.30405    1.00217   1.00
H2       0.20055    0.33573    1.04235   1.00
H2       0.23517    0.32982    1.00350   1.00
C3a      0.26615    0.21706    1.08155   1.00
H1       0.27934    0.19281    1.09700   1.00
C3a      0.23138    0.27883    1.08257   1.00
H1       0.21771    0.30229    1.09881   1.00
C2       0.24846    0.24744    1.10243   1.00
C2       0.25256    0.39757    0.75154   1.00
C3a      0.26942    0.41884    0.78212   1.00
H1       0.28324    0.40369    0.80622   1.00
C3a      0.23468    0.41704    0.72035   1.00
H1       0.22166    0.40051    0.69673   1.00
C3b      0.26860    0.45938    0.78185   1.00
C5       0.28700    0.48144    0.81519   1.00
H2       0.26481    0.49984    0.82990   1.00
H2       0.29981    0.46161    0.83737   1.00
H2       0.31062    0.50060    0.80411   1.00
C3b      0.23348    0.45756    0.71940   1.00
C5       0.21402    0.47767    0.68543   1.00
H2       0.23528    0.49670    0.67015   1.00
H2       0.20223    0.45655    0.66387   1.00
H2       0.18947    0.49594    0.69594   1.00
C4       0.25053    0.47873    0.75032   1.00
C4       0.24947    0.52127    0.74968   1.00
C3b      0.21774    0.54101    0.76695   1.00
C5       0.18461    0.51937    0.78622   1.00
H2       0.19586    0.50129    0.81058   1.00
H2       0.16223    0.53949    0.79822   1.00
H2       0.17010    0.49995    0.76477   1.00
C3b      0.28019    0.54204    0.73180   1.00
C5       0.31437    0.52152    0.71317   1.00
H2       0.30405    0.50217    0.68937   1.00
H2       0.33573    0.54235    0.70055   1.00
H2       0.32982    0.50350    0.73517   1.00
C3a      0.21706    0.58155    0.76615   1.00
H1       0.19281    0.59700    0.77934   1.00
C3a      0.27883    0.58257    0.73138   1.00
H1       0.30229    0.59881    0.71771   1.00
C2       0.24744    0.60243    0.74846   1.00
C2       0.10243    0.25154    0.74744   1.00
C3a      0.08116    0.28212    0.73058   1.00
H1       0.09631    0.30622    0.71676   1.00
C3a      0.08296    0.22035    0.76532   1.00
H1       0.09949    0.19673    0.77834   1.00
C3b      0.04062    0.28185    0.73140   1.00
C5       0.01856    0.31519    0.71300   1.00
H2       0.00016    0.32990    0.73519   1.00
H2       0.03839    0.33737    0.70019   1.00
H2       -0.00060   0.30411    0.68938   1.00
C3b      0.04244    0.21940    0.76652   1.00
C5       0.02233    0.18543    0.78598   1.00
H2       0.00330    0.17015    0.76472   1.00
H2       0.04345    0.16387    0.79777   1.00
H2       0.00406    0.19594    0.81053   1.00
C4       0.02127    0.25032    0.74947   1.00
C4       -0.02127   0.24968    0.75053   1.00
C3b      -0.04101   0.26695    0.78226   1.00
C5       -0.01937   0.28622    0.81539   1.00
H2       -0.00129   0.31058    0.80414   1.00
H2       -0.03949   0.29822    0.83777   1.00
H2       0.00005    0.26477    0.82990   1.00
C3b      -0.04204   0.23180    0.71981   1.00
C5       -0.02152   0.21317    0.68563   1.00
H2       -0.00217   0.18937    0.69595   1.00
H2       -0.04235   0.20055    0.66427   1.00
H2       -0.00350   0.23517    0.67018   1.00
C3a      -0.08155   0.26615    0.78294   1.00
H1       -0.09700   0.27934    0.80719   1.00
C3a      -0.08257   0.23138    0.72117   1.00
H1       -0.09881   0.21771    0.69771   1.00
C2       -0.10243   0.24846    0.75256   1.00
C2       0.39757    0.25154    0.75256   1.00
C3a      0.41884    0.28212    0.76942   1.00
H1       0.40369    0.30622    0.78324   1.00
C3a      0.41704    0.22035    0.73468   1.00
H1       0.40051    0.19673    0.72166   1.00
C3b      0.45938    0.28185    0.76860   1.00
C5       0.48144    0.31519    0.78700   1.00
H2       0.49984    0.32990    0.76481   1.00
H2       0.46161    0.33737    0.79981   1.00
H2       0.50060    0.30411    0.81062   1.00
C3b      0.45756    0.21940    0.73348   1.00
C5       0.47767    0.18543    0.71402   1.00
H2       0.49670    0.17015    0.73528   1.00
H2       0.45655    0.16387    0.70223   1.00
H2       0.49594    0.19594    0.68947   1.00
C4       0.47873    0.25032    0.75053   1.00
C4       0.52127    0.24968    0.74947   1.00
C3b      0.54101    0.26695    0.71774   1.00
C5       0.51937    0.28622    0.68461   1.00
H2       0.50129    0.31058    0.69586   1.00
H2       0.53949    0.29822    0.66223   1.00
H2       0.49995    0.26477    0.67010   1.00
C3b      0.54204    0.23180    0.78019   1.00
C5       0.52152    0.21317    0.81437   1.00
H2       0.50217    0.18937    0.80405   1.00
H2       0.54235    0.20055    0.83573   1.00
H2       0.50350    0.23517    0.82982   1.00
C3a      0.58155    0.26615    0.71706   1.00
H1       0.59700    0.27934    0.69281   1.00
C3a      0.58257    0.23138    0.77883   1.00
H1       0.59881    0.21771    0.80229   1.00
C2       0.60243    0.24846    0.74744   1.00
C2       0.24744    0.10243    0.75154   1.00
C3a      0.23058    0.08116    0.78212   1.00
H1       0.21676    0.09631    0.80622   1.00
C3a      0.26532    0.08296    0.72035   1.00
H1       0.27834    0.09949    0.69673   1.00
C3b      0.23140    0.04062    0.78185   1.00
C5       0.21300    0.01856    0.81519   1.00
H2       0.23519    0.00016    0.82990   1.00
H2       0.20019    0.03839    0.83737   1.00
H2       0.18938    -0.00060   0.80411   1.00
C3b      0.26652    0.04244    0.71940   1.00
C5       0.28598    0.02233    0.68543   1.00
H2       0.26472    0.00330    0.67015   1.00
H2       0.29777    0.04345    0.66387   1.00
H2       0.31053    0.00406    0.69594   1.00
C4       0.24947    0.02127    0.75032   1.00
C4       0.25053    -0.02127   0.74968   1.00
C3b      0.28226    -0.04101   0.76695   1.00
C5       0.31539    -0.01937   0.78622   1.00
H2       0.30414    -0.00129   0.81058   1.00
H2       0.33777    -0.03949   0.79822   1.00
H2       0.32990    0.00005    0.76477   1.00
C3b      0.21981    -0.04204   0.73180   1.00
C5       0.18563    -0.02152   0.71317   1.00
H2       0.19595    -0.00217   0.68937   1.00
H2       0.16427    -0.04235   0.70055   1.00
H2       0.17018    -0.00350   0.73517   1.00
C3a      0.28294    -0.08155   0.76615   1.00
H1       0.30719    -0.09700   0.77934   1.00
C3a      0.22117    -0.08257   0.73138   1.00
H1       0.19771    -0.09881   0.71771   1.00
C2       0.25256    -0.10243   0.74846   1.00
C2       0.25154    0.24744    0.60243   1.00
C3a      0.28212    0.23058    0.58116   1.00
H1       0.30622    0.21676    0.59631   1.00
C3a      0.22035    0.26532    0.58296   1.00
H1       0.19673    0.27834    0.59949   1.00
C3b      0.28185    0.23140    0.54062   1.00
C5       0.31519    0.21300    0.51856   1.00
H2       0.32990    0.23519    0.50016   1.00
H2       0.33737    0.20019    0.53839   1.00
H2       0.30411    0.18938    0.49940   1.00
C3b      0.21940    0.26652    0.54244   1.00
C5       0.18543    0.28598    0.52233   1.00
H2       0.17015    0.26472    0.50330   1.00
H2       0.16387    0.29777    0.54345   1.00
H2       0.19594    0.31053    0.50406   1.00
C4       0.25032    0.24947    0.52127   1.00
C4       0.24968    0.25053    0.47873   1.00
C3b      0.26695    0.28226    0.45899   1.00
C5       0.28622    0.31539    0.48063   1.00
H2       0.31058    0.30414    0.49871   1.00
H2       0.29822    0.33777    0.46051   1.00
H2       0.26477    0.32990    0.50005   1.00
C3b      0.23180    0.21981    0.45796   1.00
C5       0.21317    0.18563    0.47848   1.00
H2       0.18937    0.19595    0.49783   1.00
H2       0.20055    0.16427    0.45765   1.00
H2       0.23517    0.17018    0.49650   1.00
C3a      0.26615    0.28294    0.41845   1.00
H1       0.27934    0.30719    0.40300   1.00
C3a      0.23138    0.22117    0.41743   1.00
H1       0.21771    0.19771    0.40119   1.00
C2       0.24846    0.25256    0.39757   1.00
C2       0.25154    0.75256    0.39757   1.00
C3a      0.28212    0.76942    0.41884   1.00
H1       0.30622    0.78324    0.40369   1.00
C3a      0.22035    0.73468    0.41704   1.00
H1       0.19673    0.72166    0.40051   1.00
C3b      0.28185    0.76860    0.45938   1.00
C5       0.31519    0.78700    0.48144   1.00
H2       0.32990    0.76481    0.49984   1.00
H2       0.33737    0.79981    0.46161   1.00
H2       0.30411    0.81062    0.50060   1.00
C3b      0.21940    0.73348    0.45756   1.00
C5       0.18543    0.71402    0.47767   1.00
H2       0.17015    0.73528    0.49670   1.00
H2       0.16387    0.70223    0.45655   1.00
H2       0.19594    0.68947    0.49594   1.00
C4       0.25032    0.75053    0.47873   1.00
C4       0.24968    0.74947    0.52127   1.00
C3b      0.26695    0.71774    0.54101   1.00
C5       0.28622    0.68461    0.51937   1.00
H2       0.31058    0.69586    0.50129   1.00
H2       0.29822    0.66223    0.53949   1.00
H2       0.26477    0.67010    0.49995   1.00
C3b      0.23180    0.78019    0.54204   1.00
C5       0.21317    0.81437    0.52152   1.00
H2       0.18937    0.80405    0.50217   1.00
H2       0.20055    0.83573    0.54235   1.00
H2       0.23517    0.82982    0.50350   1.00
C3a      0.26615    0.71706    0.58155   1.00
H1       0.27934    0.69281    0.59700   1.00
C3a      0.23138    0.77883    0.58257   1.00
H1       0.21771    0.80229    0.59881   1.00
C2       0.24846    0.74744    0.60243   1.00
C2       0.25256    0.89757    0.25154   1.00
C3a      0.26942    0.91884    0.28212   1.00
H1       0.28324    0.90369    0.30622   1.00
C3a      0.23468    0.91704    0.22035   1.00
H1       0.22166    0.90051    0.19673   1.00
C3b      0.26860    0.95938    0.28185   1.00
C5       0.28700    0.98144    0.31519   1.00
H2       0.26481    0.99984    0.32990   1.00
H2       0.29981    0.96161    0.33737   1.00
H2       0.31062    1.00060    0.30411   1.00
C3b      0.23348    0.95756    0.21940   1.00
C5       0.21402    0.97767    0.18543   1.00
H2       0.23528    0.99670    0.17015   1.00
H2       0.20223    0.95655    0.16387   1.00
H2       0.18947    0.99594    0.19594   1.00
C4       0.25053    0.97873    0.25032   1.00
C4       0.24947    1.02127    0.24968   1.00
C3b      0.21774    1.04101    0.26695   1.00
C5       0.18461    1.01937    0.28622   1.00
H2       0.19586    1.00129    0.31058   1.00
H2       0.16223    1.03949    0.29822   1.00
H2       0.17010    0.99995    0.26477   1.00
C3b      0.28019    1.04204    0.23180   1.00
C5       0.31437    1.02152    0.21317   1.00
H2       0.30405    1.00217    0.18937   1.00
H2       0.33573    1.04235    0.20055   1.00
H2       0.32982    1.00350    0.23517   1.00
C3a      0.21706    1.08155    0.26615   1.00
H1       0.19281    1.09700    0.27934   1.00
C3a      0.27883    1.08257    0.23138   1.00
H1       0.30229    1.09881    0.21771   1.00
C2       0.24744    1.10243    0.24846   1.00
C2       0.10243    0.75154    0.24744   1.00
C3a      0.08116    0.78212    0.23058   1.00
H1       0.09631    0.80622    0.21676   1.00
C3a      0.08296    0.72035    0.26532   1.00
H1       0.09949    0.69673    0.27834   1.00
C3b      0.04062    0.78185    0.23140   1.00
C5       0.01856    0.81519    0.21300   1.00
H2       0.00016    0.82990    0.23519   1.00
H2       0.03839    0.83737    0.20019   1.00
H2       -0.00060   0.80411    0.18938   1.00
C3b      0.04244    0.71940    0.26652   1.00
C5       0.02233    0.68543    0.28598   1.00
H2       0.00330    0.67015    0.26472   1.00
H2       0.04345    0.66387    0.29777   1.00
H2       0.00406    0.69594    0.31053   1.00
C4       0.02127    0.75032    0.24947   1.00
C4       -0.02127   0.74968    0.25053   1.00
C3b      -0.04101   0.76695    0.28226   1.00
C5       -0.01937   0.78622    0.31539   1.00
H2       -0.00129   0.81058    0.30414   1.00
H2       -0.03949   0.79822    0.33777   1.00
H2       0.00005    0.76477    0.32990   1.00
C3b      -0.04204   0.73180    0.21981   1.00
C5       -0.02152   0.71317    0.18563   1.00
H2       -0.00217   0.68937    0.19595   1.00
H2       -0.04235   0.70055    0.16427   1.00
H2       -0.00350   0.73517    0.17018   1.00
C3a      -0.08155   0.76615    0.28294   1.00
H1       -0.09700   0.77934    0.30719   1.00
C3a      -0.08257   0.73138    0.22117   1.00
H1       -0.09881   0.71771    0.19771   1.00
C2       -0.10243   0.74846    0.25256   1.00
C2       0.39757    0.75154    0.25256   1.00
C3a      0.41884    0.78212    0.26942   1.00
H1       0.40369    0.80622    0.28324   1.00
C3a      0.41704    0.72035    0.23468   1.00
H1       0.40051    0.69673    0.22166   1.00
C3b      0.45938    0.78185    0.26860   1.00
C5       0.48144    0.81519    0.28700   1.00
H2       0.49984    0.82990    0.26481   1.00
H2       0.46161    0.83737    0.29981   1.00
H2       0.50060    0.80411    0.31062   1.00
C3b      0.45756    0.71940    0.23348   1.00
C5       0.47767    0.68543    0.21402   1.00
H2       0.49670    0.67015    0.23528   1.00
H2       0.45655    0.66387    0.20223   1.00
H2       0.49594    0.69594    0.18947   1.00
C4       0.47873    0.75032    0.25053   1.00
C4       0.52127    0.74968    0.24947   1.00
C3b      0.54101    0.76695    0.21774   1.00
C5       0.51937    0.78622    0.18461   1.00
H2       0.50129    0.81058    0.19586   1.00
H2       0.53949    0.79822    0.16223   1.00
H2       0.49995    0.76477    0.17010   1.00
C3b      0.54204    0.73180    0.28019   1.00
C5       0.52152    0.71317    0.31437   1.00
H2       0.50217    0.68937    0.30405   1.00
H2       0.54235    0.70055    0.33573   1.00
H2       0.50350    0.73517    0.32982   1.00
C3a      0.58155    0.76615    0.21706   1.00
H1       0.59700    0.77934    0.19281   1.00
C3a      0.58257    0.73138    0.27883   1.00
H1       0.59881    0.71771    0.30229   1.00
C2       0.60243    0.74846    0.24744   1.00
C2       0.24744    0.60243    0.25154   1.00
C3a      0.23058    0.58116    0.28212   1.00
H1       0.21676    0.59631    0.30622   1.00
C3a      0.26532    0.58296    0.22035   1.00
H1       0.27834    0.59949    0.19673   1.00
C3b      0.23140    0.54062    0.28185   1.00
C5       0.21300    0.51856    0.31519   1.00
H2       0.23519    0.50016    0.32990   1.00
H2       0.20019    0.53839    0.33737   1.00
H2       0.18938    0.49940    0.30411   1.00
C3b      0.26652    0.54244    0.21940   1.00
C5       0.28598    0.52233    0.18543   1.00
H2       0.26472    0.50330    0.17015   1.00
H2       0.29777    0.54345    0.16387   1.00
H2       0.31053    0.50406    0.19594   1.00
C4       0.24947    0.52127    0.25032   1.00
C4       0.25053    0.47873    0.24968   1.00
C3b      0.28226    0.45899    0.26695   1.00
C5       0.31539    0.48063    0.28622   1.00
H2       0.30414    0.49871    0.31058   1.00
H2       0.33777    0.46051    0.29822   1.00
H2       0.32990    0.50005    0.26477   1.00
C3b      0.21981    0.45796    0.23180   1.00
C5       0.18563    0.47848    0.21317   1.00
H2       0.19595    0.49783    0.18937   1.00
H2       0.16427    0.45765    0.20055   1.00
H2       0.17018    0.49650    0.23517   1.00
C3a      0.28294    0.41845    0.26615   1.00
H1       0.30719    0.40300    0.27934   1.00
C3a      0.22117    0.41743    0.23138   1.00
H1       0.19771    0.40119    0.21771   1.00
C2       0.25256    0.39757    0.24846   1.00
C2       0.25154    0.74744    0.10243   1.00
C3a      0.28212    0.73058    0.08116   1.00
H1       0.30622    0.71676    0.09631   1.00
C3a      0.22035    0.76532    0.08296   1.00
H1       0.19673    0.77834    0.09949   1.00
C3b      0.28185    0.73140    0.04062   1.00
C5       0.31519    0.71300    0.01856   1.00
H2       0.32990    0.73519    0.00016   1.00
H2       0.33737    0.70019    0.03839   1.00
H2       0.30411    0.68938    -0.00060   1.00
C3b      0.21940    0.76652    0.04244   1.00
C5       0.18543    0.78598    0.02233   1.00
H2       0.17015    0.76472    0.00330   1.00
H2       0.16387    0.79777    0.04345   1.00
H2       0.19594    0.81053    0.00406   1.00
C4       0.25032    0.74947    0.02127   1.00
C4       0.24968    0.75053    -0.02127   1.00
C3b      0.26695    0.78226    -0.04101   1.00
C5       0.28622    0.81539    -0.01937   1.00
H2       0.31058    0.80414    -0.00129   1.00
H2       0.29822    0.83777    -0.03949   1.00
H2       0.26477    0.82990    0.00005   1.00
C3b      0.23180    0.71981    -0.04204   1.00
C5       0.21317    0.68563    -0.02152   1.00
H2       0.18937    0.69595    -0.00217   1.00
H2       0.20055    0.66427    -0.04235   1.00
H2       0.23517    0.67018    -0.00350   1.00
C3a      0.26615    0.78294    -0.08155   1.00
H1       0.27934    0.80719    -0.09700   1.00
C3a      0.23138    0.72117    -0.08257   1.00
H1       0.21771    0.69771    -0.09881   1.00
C2       0.24846    0.75256    -0.10243   1.00
C2       0.75154    0.25256    0.39757   1.00
C3a      0.78212    0.26942    0.41884   1.00
H1       0.80622    0.28324    0.40369   1.00
C3a      0.72035    0.23468    0.41704   1.00
H1       0.69673    0.22166    0.40051   1.00
C3b      0.78185    0.26860    0.45938   1.00
C5       0.81519    0.28700    0.48144   1.00
H2       0.82990    0.26481    0.49984   1.00
H2       0.83737    0.29981    0.46161   1.00
H2       0.80411    0.31062    0.50060   1.00
C3b      0.71940    0.23348    0.45756   1.00
C5       0.68543    0.21402    0.47767   1.00
H2       0.67015    0.23528    0.49670   1.00
H2       0.66387    0.20223    0.45655   1.00
H2       0.69594    0.18947    0.49594   1.00
C4       0.75032    0.25053    0.47873   1.00
C4       0.74968    0.24947    0.52127   1.00
C3b      0.76695    0.21774    0.54101   1.00
C5       0.78622    0.18461    0.51937   1.00
H2       0.81058    0.19586    0.50129   1.00
H2       0.79822    0.16223    0.53949   1.00
H2       0.76477    0.17010    0.49995   1.00
C3b      0.73180    0.28019    0.54204   1.00
C5       0.71317    0.31437    0.52152   1.00
H2       0.68937    0.30405    0.50217   1.00
H2       0.70055    0.33573    0.54235   1.00
H2       0.73517    0.32982    0.50350   1.00
C3a      0.76615    0.21706    0.58155   1.00
H1       0.77934    0.19281    0.59700   1.00
C3a      0.73138    0.27883    0.58257   1.00
H1       0.71771    0.30229    0.59881   1.00
C2       0.74846    0.24744    0.60243   1.00
C2       0.75256    0.39757    0.25154   1.00
C3a      0.76942    0.41884    0.28212   1.00
H1       0.78324    0.40369    0.30622   1.00
C3a      0.73468    0.41704    0.22035   1.00
H1       0.72166    0.40051    0.19673   1.00
C3b      0.76860    0.45938    0.28185   1.00
C5       0.78700    0.48144    0.31519   1.00
H2       0.76481    0.49984    0.32990   1.00
H2       0.79981    0.46161    0.33737   1.00
H2       0.81062    0.50060    0.30411   1.00
C3b      0.73348    0.45756    0.21940   1.00
C5       0.71402    0.47767    0.18543   1.00
H2       0.73528    0.49670    0.17015   1.00
H2       0.70223    0.45655    0.16387   1.00
H2       0.68947    0.49594    0.19594   1.00
C4       0.75053    0.47873    0.25032   1.00
C4       0.74947    0.52127    0.24968   1.00
C3b      0.71774    0.54101    0.26695   1.00
C5       0.68461    0.51937    0.28622   1.00
H2       0.69586    0.50129    0.31058   1.00
H2       0.66223    0.53949    0.29822   1.00
H2       0.67010    0.49995    0.26477   1.00
C3b      0.78019    0.54204    0.23180   1.00
C5       0.81437    0.52152    0.21317   1.00
H2       0.80405    0.50217    0.18937   1.00
H2       0.83573    0.54235    0.20055   1.00
H2       0.82982    0.50350    0.23517   1.00
C3a      0.71706    0.58155    0.26615   1.00
H1       0.69281    0.59700    0.27934   1.00
C3a      0.77883    0.58257    0.23138   1.00
H1       0.80229    0.59881    0.21771   1.00
C2       0.74744    0.60243    0.24846   1.00
C2       0.60243    0.25154    0.24744   1.00
C3a      0.58116    0.28212    0.23058   1.00
H1       0.59631    0.30622    0.21676   1.00
C3a      0.58296    0.22035    0.26532   1.00
H1       0.59949    0.19673    0.27834   1.00
C3b      0.54062    0.28185    0.23140   1.00
C5       0.51856    0.31519    0.21300   1.00
H2       0.50016    0.32990    0.23519   1.00
H2       0.53839    0.33737    0.20019   1.00
H2       0.49940    0.30411    0.18938   1.00
C3b      0.54244    0.21940    0.26652   1.00
C5       0.52233    0.18543    0.28598   1.00
H2       0.50330    0.17015    0.26472   1.00
H2       0.54345    0.16387    0.29777   1.00
H2       0.50406    0.19594    0.31053   1.00
C4       0.52127    0.25032    0.24947   1.00
C4       0.47873    0.24968    0.25053   1.00
C3b      0.45899    0.26695    0.28226   1.00
C5       0.48063    0.28622    0.31539   1.00
H2       0.49871    0.31058    0.30414   1.00
H2       0.46051    0.29822    0.33777   1.00
H2       0.50005    0.26477    0.32990   1.00
C3b      0.45796    0.23180    0.21981   1.00
C5       0.47848    0.21317    0.18563   1.00
H2       0.49783    0.18937    0.19595   1.00
H2       0.45765    0.20055    0.16427   1.00
H2       0.49650    0.23517    0.17018   1.00
C3a      0.41845    0.26615    0.28294   1.00
H1       0.40300    0.27934    0.30719   1.00
C3a      0.41743    0.23138    0.22117   1.00
H1       0.40119    0.21771    0.19771   1.00
C2       0.39757    0.24846    0.25256   1.00
C2       0.89757    0.25154    0.25256   1.00
C3a      0.91884    0.28212    0.26942   1.00
H1       0.90369    0.30622    0.28324   1.00
C3a      0.91704    0.22035    0.23468   1.00
H1       0.90051    0.19673    0.22166   1.00
C3b      0.95938    0.28185    0.26860   1.00
C5       0.98144    0.31519    0.28700   1.00
H2       0.99984    0.32990    0.26481   1.00
H2       0.96161    0.33737    0.29981   1.00
H2       1.00060    0.30411    0.31062   1.00
C3b      0.95756    0.21940    0.23348   1.00
C5       0.97767    0.18543    0.21402   1.00
H2       0.99670    0.17015    0.23528   1.00
H2       0.95655    0.16387    0.20223   1.00
H2       0.99594    0.19594    0.18947   1.00
C4       0.97873    0.25032    0.25053   1.00
C4       1.02127    0.24968    0.24947   1.00
C3b      1.04101    0.26695    0.21774   1.00
C5       1.01937    0.28622    0.18461   1.00
H2       1.00129    0.31058    0.19586   1.00
H2       1.03949    0.29822    0.16223   1.00
H2       0.99995    0.26477    0.17010   1.00
C3b      1.04204    0.23180    0.28019   1.00
C5       1.02152    0.21317    0.31437   1.00
H2       1.00217    0.18937    0.30405   1.00
H2       1.04235    0.20055    0.33573   1.00
H2       1.00350    0.23517    0.32982   1.00
C3a      1.08155    0.26615    0.21706   1.00
H1       1.09700    0.27934    0.19281   1.00
C3a      1.08257    0.23138    0.27883   1.00
H1       1.09881    0.21771    0.30229   1.00
C2       1.10243    0.24846    0.24744   1.00
C2       0.74744    0.10243    0.25154   1.00
C3a      0.73058    0.08116    0.28212   1.00
H1       0.71676    0.09631    0.30622   1.00
C3a      0.76532    0.08296    0.22035   1.00
H1       0.77834    0.09949    0.19673   1.00
C3b      0.73140    0.04062    0.28185   1.00
C5       0.71300    0.01856    0.31519   1.00
H2       0.73519    0.00016    0.32990   1.00
H2       0.70019    0.03839    0.33737   1.00
H2       0.68938    -0.00060   0.30411   1.00
C3b      0.76652    0.04244    0.21940   1.00
C5       0.78598    0.02233    0.18543   1.00
H2       0.76472    0.00330    0.17015   1.00
H2       0.79777    0.04345    0.16387   1.00
H2       0.81053    0.00406    0.19594   1.00
C4       0.74947    0.02127    0.25032   1.00
C4       0.75053    -0.02127   0.24968   1.00
C3b      0.78226    -0.04101   0.26695   1.00
C5       0.81539    -0.01937   0.28622   1.00
H2       0.80414    -0.00129   0.31058   1.00
H2       0.83777    -0.03949   0.29822   1.00
H2       0.82990    0.00005    0.26477   1.00
C3b      0.71981    -0.04204   0.23180   1.00
C5       0.68563    -0.02152   0.21317   1.00
H2       0.69595    -0.00217   0.18937   1.00
H2       0.66427    -0.04235   0.20055   1.00
H2       0.67018    -0.00350   0.23517   1.00
C3a      0.78294    -0.08155   0.26615   1.00
H1       0.80719    -0.09700   0.27934   1.00
C3a      0.72117    -0.08257   0.23138   1.00
H1       0.69771    -0.09881   0.21771   1.00
C2       0.75256    -0.10243   0.24846   1.00
C2       0.75154    0.24744    0.10243   1.00
C3a      0.78212    0.23058    0.08116   1.00
H1       0.80622    0.21676    0.09631   1.00
C3a      0.72035    0.26532    0.08296   1.00
H1       0.69673    0.27834    0.09949   1.00
C3b      0.78185    0.23140    0.04062   1.00
C5       0.81519    0.21300    0.01856   1.00
H2       0.82990    0.23519    0.00016   1.00
H2       0.83737    0.20019    0.03839   1.00
H2       0.80411    0.18938    -0.00060   1.00
C3b      0.71940    0.26652    0.04244   1.00
C5       0.68543    0.28598    0.02233   1.00
H2       0.67015    0.26472    0.00330   1.00
H2       0.66387    0.29777    0.04345   1.00
H2       0.69594    0.31053    0.00406   1.00
C4       0.75032    0.24947    0.02127   1.00
C4       0.74968    0.25053    -0.02127   1.00
C3b      0.76695    0.28226    -0.04101   1.00
C5       0.78622    0.31539    -0.01937   1.00
H2       0.81058    0.30414    -0.00129   1.00
H2       0.79822    0.33777    -0.03949   1.00
H2       0.76477    0.32990    0.00005   1.00
C3b      0.73180    0.21981    -0.04204   1.00
C5       0.71317    0.18563    -0.02152   1.00
H2       0.68937    0.19595    -0.00217   1.00
H2       0.70055    0.16427    -0.04235   1.00
H2       0.73517    0.17018    -0.00350   1.00
C3a      0.76615    0.28294    -0.08155   1.00
H1       0.77934    0.30719    -0.09700   1.00
C3a      0.73138    0.22117    -0.08257   1.00
H1       0.71771    0.19771    -0.09881   1.00
C2       0.74846    0.25256    -0.10243   1.00
C2       1.00154    1.00256    1.14757   1.00
C3a      1.03212    1.01942    1.16884   1.00
H1       1.05622    1.03324    1.15369   1.00
C3a      0.97035    0.98468    1.16704   1.00
H1       0.94673    0.97166    1.15051   1.00
C3b      1.03185    1.01860    1.20938   1.00
C5       1.06519    1.03700    1.23144   1.00
H2       1.07990    1.01481    1.24984   1.00
H2       1.08737    1.04981    1.21161   1.00
H2       1.05411    1.06062    1.25060   1.00
C3b      0.96940    0.98348    1.20756   1.00
C5       0.93543    0.96402    1.22767   1.00
H2       0.92015    0.98528    1.24670   1.00
H2       0.91387    0.95223    1.20655   1.00
H2       0.94594    0.93947    1.24594   1.00
C4       1.00032    1.00053    1.22873   1.00
C4       0.99968    0.99947    1.27127   1.00
C3b      1.01695    0.96774    1.29101   1.00
C5       1.03622    0.93461    1.26937   1.00
H2       1.06058    0.94586    1.25129   1.00
H2       1.04822    0.91223    1.28949   1.00
H2       1.01477    0.92010    1.24995   1.00
C3b      0.98180    1.03019    1.29204   1.00
C5       0.96317    1.06437    1.27152   1.00
H2       0.93937    1.05405    1.25217   1.00
H2       0.95055    1.08573    1.29235   1.00
H2       0.98517    1.07982    1.25350   1.00
C3a      1.01615    0.96706    1.33155   1.00
H1       1.02934    0.94281    1.34700   1.00
C3a      0.98138    1.02883    1.33257   1.00
H1       0.96771    1.05229    1.34881   1.00
C2       0.99846    0.99744    1.35243   1.00
C2       1.00256    1.14757    1.00154   1.00
C3a      1.01942    1.16884    1.03212   1.00
H1       1.03324    1.15369    1.05622   1.00
C3a      0.98468    1.16704    0.97035   1.00
H1       0.97166    1.15051    0.94673   1.00
C3b      1.01860    1.20938    1.03185   1.00
C5       1.03700    1.23144    1.06519   1.00
H2       1.01481    1.24984    1.07990   1.00
H2       1.04981    1.21161    1.08737   1.00
H2       1.06062    1.25060    1.05411   1.00
C3b      0.98348    1.20756    0.96940   1.00
C5       0.96402    1.22767    0.93543   1.00
H2       0.98528    1.24670    0.92015   1.00
H2       0.95223    1.20655    0.91387   1.00
H2       0.93947    1.24594    0.94594   1.00
C4       1.00053    1.22873    1.00032   1.00
C4       0.99947    1.27127    0.99968   1.00
C3b      0.96774    1.29101    1.01695   1.00
C5       0.93461    1.26937    1.03622   1.00
H2       0.94586    1.25129    1.06058   1.00
H2       0.91223    1.28949    1.04822   1.00
H2       0.92010    1.24995    1.01477   1.00
C3b      1.03019    1.29204    0.98180   1.00
C5       1.06437    1.27152    0.96317   1.00
H2       1.05405    1.25217    0.93937   1.00
H2       1.08573    1.29235    0.95055   1.00
H2       1.07982    1.25350    0.98517   1.00
C3a      0.96706    1.33155    1.01615   1.00
H1       0.94281    1.34700    1.02934   1.00
C3a      1.02883    1.33257    0.98138   1.00
H1       1.05229    1.34881    0.96771   1.00
C2       0.99744    1.35243    0.99846   1.00
C2       0.85243    1.00154    0.99744   1.00
C3a      0.83116    1.03212    0.98058   1.00
H1       0.84631    1.05622    0.96676   1.00
C3a      0.83296    0.97035    1.01532   1.00
H1       0.84949    0.94673    1.02834   1.00
C3b      0.79062    1.03185    0.98140   1.00
C5       0.76856    1.06519    0.96300   1.00
H2       0.75016    1.07990    0.98519   1.00
H2       0.78839    1.08737    0.95019   1.00
H2       0.74940    1.05411    0.93938   1.00
C3b      0.79244    0.96940    1.01652   1.00
C5       0.77233    0.93543    1.03598   1.00
H2       0.75330    0.92015    1.01472   1.00
H2       0.79345    0.91387    1.04777   1.00
H2       0.75406    0.94594    1.06053   1.00
C4       0.77127    1.00032    0.99947   1.00
C4       0.72873    0.99968    1.00053   1.00
C3b      0.70899    1.01695    1.03226   1.00
C5       0.73063    1.03622    1.06539   1.00
H2       0.74871    1.06058    1.05414   1.00
H2       0.71051    1.04822    1.08777   1.00
H2       0.75005    1.01477    1.07990   1.00
C3b      0.70796    0.98180    0.96981   1.00
C5       0.72848    0.96317    0.93563   1.00
H2       0.74783    0.93937    0.94595   1.00
H2       0.70765    0.95055    0.91427   1.00
H2       0.74650    0.98517    0.92018   1.00
C3a      0.66845    1.01615    1.03294   1.00
H1       0.65300    1.02934    1.05719   1.00
C3a      0.66743    0.98138    0.97117   1.00
H1       0.65119    0.96771    0.94771   1.00
C2       0.64757    0.99846    1.00256   1.00
C2       1.14757    1.00154    1.00256   1.00
C3a      1.16884    1.03212    1.01942   1.00
H1       1.15369    1.05622    1.03324   1.00
C3a      1.16704    0.97035    0.98468   1.00
H1       1.15051    0.94673    0.97166   1.00
C3b      1.20938    1.03185    1.01860   1.00
C5       1.23144    1.06519    1.03700   1.00
H2       1.24984    1.07990    1.01481   1.00
H2       1.21161    1.08737    1.04981   1.00
H2       1.25060    1.05411    1.06062   1.00
C3b      1.20756    0.96940    0.98348   1.00
C5       1.22767    0.93543    0.96402   1.00
H2       1.24670    0.92015    0.98528   1.00
H2       1.20655    0.91387    0.95223   1.00
H2       1.24594    0.94594    0.93947   1.00
C4       1.22873    1.00032    1.00053   1.00
C4       1.27127    0.99968    0.99947   1.00
C3b      1.29101    1.01695    0.96774   1.00
C5       1.26937    1.03622    0.93461   1.00
H2       1.25129    1.06058    0.94586   1.00
H2       1.28949    1.04822    0.91223   1.00
H2       1.24995    1.01477    0.92010   1.00
C3b      1.29204    0.98180    1.03019   1.00
C5       1.27152    0.96317    1.06437   1.00
H2       1.25217    0.93937    1.05405   1.00
H2       1.29235    0.95055    1.08573   1.00
H2       1.25350    0.98517    1.07982   1.00
C3a      1.33155    1.01615    0.96706   1.00
H1       1.34700    1.02934    0.94281   1.00
C3a      1.33257    0.98138    1.02883   1.00
H1       1.34881    0.96771    1.05229   1.00
C2       1.35243    0.99846    0.99744   1.00
C2       0.99744    0.85243    1.00154   1.00
C3a      0.98058    0.83116    1.03212   1.00
H1       0.96676    0.84631    1.05622   1.00
C3a      1.01532    0.83296    0.97035   1.00
H1       1.02834    0.84949    0.94673   1.00
C3b      0.98140    0.79062    1.03185   1.00
C5       0.96300    0.76856    1.06519   1.00
H2       0.98519    0.75016    1.07990   1.00
H2       0.95019    0.78839    1.08737   1.00
H2       0.93938    0.74940    1.05411   1.00
C3b      1.01652    0.79244    0.96940   1.00
C5       1.03598    0.77233    0.93543   1.00
H2       1.01472    0.75330    0.92015   1.00
H2       1.04777    0.79345    0.91387   1.00
H2       1.06053    0.75406    0.94594   1.00
C4       0.99947    0.77127    1.00032   1.00
C4       1.00053    0.72873    0.99968   1.00
C3b      1.03226    0.70899    1.01695   1.00
C5       1.06539    0.73063    1.03622   1.00
H2       1.05414    0.74871    1.06058   1.00
H2       1.08777    0.71051    1.04822   1.00
H2       1.07990    0.75005    1.01477   1.00
C3b      0.96981    0.70796    0.98180   1.00
C5       0.93563    0.72848    0.96317   1.00
H2       0.94595    0.74783    0.93937   1.00
H2       0.91427    0.70765    0.95055   1.00
H2       0.92018    0.74650    0.98517   1.00
C3a      1.03294    0.66845    1.01615   1.00
H1       1.05719    0.65300    1.02934   1.00
C3a      0.97117    0.66743    0.98138   1.00
H1       0.94771    0.65119    0.96771   1.00
C2       1.00256    0.64757    0.99846   1.00
C2       1.00154    0.99744    0.85243   1.00
C3a      1.03212    0.98058    0.83116   1.00
H1       1.05622    0.96676    0.84631   1.00
C3a      0.97035    1.01532    0.83296   1.00
H1       0.94673    1.02834    0.84949   1.00
C3b      1.03185    0.98140    0.79062   1.00
C5       1.06519    0.96300    0.76856   1.00
H2       1.07990    0.98519    0.75016   1.00
H2       1.08737    0.95019    0.78839   1.00
H2       1.05411    0.93938    0.74940   1.00
C3b      0.96940    1.01652    0.79244   1.00
C5       0.93543    1.03598    0.77233   1.00
H2       0.92015    1.01472    0.75330   1.00
H2       0.91387    1.04777    0.79345   1.00
H2       0.94594    1.06053    0.75406   1.00
C4       1.00032    0.99947    0.77127   1.00
C4       0.99968    1.00053    0.72873   1.00
C3b      1.01695    1.03226    0.70899   1.00
C5       1.03622    1.06539    0.73063   1.00
H2       1.06058    1.05414    0.74871   1.00
H2       1.04822    1.08777    0.71051   1.00
H2       1.01477    1.07990    0.75005   1.00
C3b      0.98180    0.96981    0.70796   1.00
C5       0.96317    0.93563    0.72848   1.00
H2       0.93937    0.94595    0.74783   1.00
H2       0.95055    0.91427    0.70765   1.00
H2       0.98517    0.92018    0.74650   1.00
C3a      1.01615    1.03294    0.66845   1.00
H1       1.02934    1.05719    0.65300   1.00
C3a      0.98138    0.97117    0.66743   1.00
H1       0.96771    0.94771    0.65119   1.00
C2       0.99846    1.00256    0.64757   1.00
C2       0.50154    0.50256    1.14757   1.00
C3a      0.53212    0.51942    1.16884   1.00
H1       0.55622    0.53324    1.15369   1.00
C3a      0.47035    0.48468    1.16704   1.00
H1       0.44673    0.47166    1.15051   1.00
C3b      0.53185    0.51860    1.20938   1.00
C5       0.56519    0.53700    1.23144   1.00
H2       0.57990    0.51481    1.24984   1.00
H2       0.58737    0.54981    1.21161   1.00
H2       0.55411    0.56062    1.25060   1.00
C3b      0.46940    0.48348    1.20756   1.00
C5       0.43543    0.46402    1.22767   1.00
H2       0.42015    0.48528    1.24670   1.00
H2       0.41387    0.45223    1.20655   1.00
H2       0.44594    0.43947    1.24594   1.00
C4       0.50032    0.50053    1.22873   1.00
C4       0.49968    0.49947    1.27127   1.00
C3b      0.51695    0.46774    1.29101   1.00
C5       0.53622    0.43461    1.26937   1.00
H2       0.56058    0.44586    1.25129   1.00
H2       0.54822    0.41223    1.28949   1.00
H2       0.51477    0.42010    1.24995   1.00
C3b      0.48180    0.53019    1.29204   1.00
C5       0.46317    0.56437    1.27152   1.00
H2       0.43937    0.55405    1.25217   1.00
H2       0.45055    0.58573    1.29235   1.00
H2       0.48517    0.57982    1.25350   1.00
C3a      0.51615    0.46706    1.33155   1.00
H1       0.52934    0.44281    1.34700   1.00
C3a      0.48138    0.52883    1.33257   1.00
H1       0.46771    0.55229    1.34881   1.00
C2       0.49846    0.49744    1.35243   1.00
C2       0.50256    0.64757    1.00154   1.00
C3a      0.51942    0.66884    1.03212   1.00
H1       0.53324    0.65369    1.05622   1.00
C3a      0.48468    0.66704    0.97035   1.00
H1       0.47166    0.65051    0.94673   1.00
C3b      0.51860    0.70938    1.03185   1.00
C5       0.53700    0.73144    1.06519   1.00
H2       0.51481    0.74984    1.07990   1.00
H2       0.54981    0.71161    1.08737   1.00
H2       0.56062    0.75060    1.05411   1.00
C3b      0.48348    0.70756    0.96940   1.00
C5       0.46402    0.72767    0.93543   1.00
H2       0.48528    0.74670    0.92015   1.00
H2       0.45223    0.70655    0.91387   1.00
H2       0.43947    0.74594    0.94594   1.00
C4       0.50053    0.72873    1.00032   1.00
C4       0.49947    0.77127    0.99968   1.00
C3b      0.46774    0.79101    1.01695   1.00
C5       0.43461    0.76937    1.03622   1.00
H2       0.44586    0.75129    1.06058   1.00
H2       0.41223    0.78949    1.04822   1.00
H2       0.42010    0.74995    1.01477   1.00
C3b      0.53019    0.79204    0.98180   1.00
C5       0.56437    0.77152    0.96317   1.00
H2       0.55405    0.75217    0.93937   1.00
H2       0.58573    0.79235    0.95055   1.00
H2       0.57982    0.75350    0.98517   1.00
C3a      0.46706    0.83155    1.01615   1.00
H1       0.44281    0.84700    1.02934   1.00
C3a      0.52883    0.83257    0.98138   1.00
H1       0.55229    0.84881    0.96771   1.00
C2       0.49744    0.85243    0.99846   1.00
C2       0.35243    0.50154    0.99744   1.00
C3a      0.33116    0.53212    0.98058   1.00
H1       0.34631    0.55622    0.96676   1.00
C3a      0.33296    0.47035    1.01532   1.00
H1       0.34949    0.44673    1.02834   1.00
C3b      0.29062    0.53185    0.98140   1.00
C5       0.26856    0.56519    0.96300   1.00
H2       0.25016    0.57990    0.98519   1.00
H2       0.28839    0.58737    0.95019   1.00
H2       0.24940    0.55411    0.93938   1.00
C3b      0.29244    0.46940    1.01652   1.00
C5       0.27233    0.43543    1.03598   1.00
H2       0.25330    0.42015    1.01472   1.00
H2       0.29345    0.41387    1.04777   1.00
H2       0.25406    0.44594    1.06053   1.00
C4       0.27127    0.50032    0.99947   1.00
C4       0.22873    0.49968    1.00053   1.00
C3b      0.20899    0.51695    1.03226   1.00
C5       0.23063    0.53622    1.06539   1.00
H2       0.24871    0.56058    1.05414   1.00
H2       0.21051    0.54822    1.08777   1.00
H2       0.25005    0.51477    1.07990   1.00
C3b      0.20796    0.48180    0.96981   1.00
C5       0.22848    0.46317    0.93563   1.00
H2       0.24783    0.43937    0.94595   1.00
H2       0.20765    0.45055    0.91427   1.00
H2       0.24650    0.48517    0.92018   1.00
C3a      0.16845    0.51615    1.03294   1.00
H1       0.15300    0.52934    1.05719   1.00
C3a      0.16743    0.48138    0.97117   1.00
H1       0.15119    0.46771    0.94771   1.00
C2       0.14757    0.49846    1.00256   1.00
C2       0.64757    0.50154    1.00256   1.00
C3a      0.66884    0.53212    1.01942   1.00
H1       0.65369    0.55622    1.03324   1.00
C3a      0.66704    0.47035    0.98468   1.00
H1       0.65051    0.44673    0.97166   1.00
C3b      0.70938    0.53185    1.01860   1.00
C5       0.73144    0.56519    1.03700   1.00
H2       0.74984    0.57990    1.01481   1.00
H2       0.71161    0.58737    1.04981   1.00
H2       0.75060    0.55411    1.06062   1.00
C3b      0.70756    0.46940    0.98348   1.00
C5       0.72767    0.43543    0.96402   1.00
H2       0.74670    0.42015    0.98528   1.00
H2       0.70655    0.41387    0.95223   1.00
H2       0.74594    0.44594    0.93947   1.00
C4       0.72873    0.50032    1.00053   1.00
C4       0.77127    0.49968    0.99947   1.00
C3b      0.79101    0.51695    0.96774   1.00
C5       0.76937    0.53622    0.93461   1.00
H2       0.75129    0.56058    0.94586   1.00
H2       0.78949    0.54822    0.91223   1.00
H2       0.74995    0.51477    0.92010   1.00
C3b      0.79204    0.48180    1.03019   1.00
C5       0.77152    0.46317    1.06437   1.00
H2       0.75217    0.43937    1.05405   1.00
H2       0.79235    0.45055    1.08573   1.00
H2       0.75350    0.48517    1.07982   1.00
C3a      0.83155    0.51615    0.96706   1.00
H1       0.84700    0.52934    0.94281   1.00
C3a      0.83257    0.48138    1.02883   1.00
H1       0.84881    0.46771    1.05229   1.00
C2       0.85243    0.49846    0.99744   1.00
C2       0.49744    0.35243    1.00154   1.00
C3a      0.48058    0.33116    1.03212   1.00
H1       0.46676    0.34631    1.05622   1.00
C3a      0.51532    0.33296    0.97035   1.00
H1       0.52834    0.34949    0.94673   1.00
C3b      0.48140    0.29062    1.03185   1.00
C5       0.46300    0.26856    1.06519   1.00
H2       0.48519    0.25016    1.07990   1.00
H2       0.45019    0.28839    1.08737   1.00
H2       0.43938    0.24940    1.05411   1.00
C3b      0.51652    0.29244    0.96940   1.00
C5       0.53598    0.27233    0.93543   1.00
H2       0.51472    0.25330    0.92015   1.00
H2       0.54777    0.29345    0.91387   1.00
H2       0.56053    0.25406    0.94594   1.00
C4       0.49947    0.27127    1.00032   1.00
C4       0.50053    0.22873    0.99968   1.00
C3b      0.53226    0.20899    1.01695   1.00
C5       0.56539    0.23063    1.03622   1.00
H2       0.55414    0.24871    1.06058   1.00
H2       0.58777    0.21051    1.04822   1.00
H2       0.57990    0.25005    1.01477   1.00
C3b      0.46981    0.20796    0.98180   1.00
C5       0.43563    0.22848    0.96317   1.00
H2       0.44595    0.24783    0.93937   1.00
H2       0.41427    0.20765    0.95055   1.00
H2       0.42018    0.24650    0.98517   1.00
C3a      0.53294    0.16845    1.01615   1.00
H1       0.55719    0.15300    1.02934   1.00
C3a      0.47117    0.16743    0.98138   1.00
H1       0.44771    0.15119    0.96771   1.00
C2       0.50256    0.14757    0.99846   1.00
C2       0.50154    0.49744    0.85243   1.00
C3a      0.53212    0.48058    0.83116   1.00
H1       0.55622    0.46676    0.84631   1.00
C3a      0.47035    0.51532    0.83296   1.00
H1       0.44673    0.52834    0.84949   1.00
C3b      0.53185    0.48140    0.79062   1.00
C5       0.56519    0.46300    0.76856   1.00
H2       0.57990    0.48519    0.75016   1.00
H2       0.58737    0.45019    0.78839   1.00
H2       0.55411    0.43938    0.74940   1.00
C3b      0.46940    0.51652    0.79244   1.00
C5       0.43543    0.53598    0.77233   1.00
H2       0.42015    0.51472    0.75330   1.00
H2       0.41387    0.54777    0.79345   1.00
H2       0.44594    0.56053    0.75406   1.00
C4       0.50032    0.49947    0.77127   1.00
C4       0.49968    0.50053    0.72873   1.00
C3b      0.51695    0.53226    0.70899   1.00
C5       0.53622    0.56539    0.73063   1.00
H2       0.56058    0.55414    0.74871   1.00
H2       0.54822    0.58777    0.71051   1.00
H2       0.51477    0.57990    0.75005   1.00
C3b      0.48180    0.46981    0.70796   1.00
C5       0.46317    0.43563    0.72848   1.00
H2       0.43937    0.44595    0.74783   1.00
H2       0.45055    0.41427    0.70765   1.00
H2       0.48517    0.42018    0.74650   1.00
C3a      0.51615    0.53294    0.66845   1.00
H1       0.52934    0.55719    0.65300   1.00
C3a      0.48138    0.47117    0.66743   1.00
H1       0.46771    0.44771    0.65119   1.00
C2       0.49846    0.50256    0.64757   1.00
C2       0.50154    1.00256    0.64757   1.00
C3a      0.53212    1.01942    0.66884   1.00
H1       0.55622    1.03324    0.65369   1.00
C3a      0.47035    0.98468    0.66704   1.00
H1       0.44673    0.97166    0.65051   1.00
C3b      0.53185    1.01860    0.70938   1.00
C5       0.56519    1.03700    0.73144   1.00
H2       0.57990    1.01481    0.74984   1.00
H2       0.58737    1.04981    0.71161   1.00
H2       0.55411    1.06062    0.75060   1.00
C3b      0.46940    0.98348    0.70756   1.00
C5       0.43543    0.96402    0.72767   1.00
H2       0.42015    0.98528    0.74670   1.00
H2       0.41387    0.95223    0.70655   1.00
H2       0.44594    0.93947    0.74594   1.00
C4       0.50032    1.00053    0.72873   1.00
C4       0.49968    0.99947    0.77127   1.00
C3b      0.51695    0.96774    0.79101   1.00
C5       0.53622    0.93461    0.76937   1.00
H2       0.56058    0.94586    0.75129   1.00
H2       0.54822    0.91223    0.78949   1.00
H2       0.51477    0.92010    0.74995   1.00
C3b      0.48180    1.03019    0.79204   1.00
C5       0.46317    1.06437    0.77152   1.00
H2       0.43937    1.05405    0.75217   1.00
H2       0.45055    1.08573    0.79235   1.00
H2       0.48517    1.07982    0.75350   1.00
C3a      0.51615    0.96706    0.83155   1.00
H1       0.52934    0.94281    0.84700   1.00
C3a      0.48138    1.02883    0.83257   1.00
H1       0.46771    1.05229    0.84881   1.00
C2       0.49846    0.99744    0.85243   1.00
C2       0.50256    1.14757    0.50154   1.00
C3a      0.51942    1.16884    0.53212   1.00
H1       0.53324    1.15369    0.55622   1.00
C3a      0.48468    1.16704    0.47035   1.00
H1       0.47166    1.15051    0.44673   1.00
C3b      0.51860    1.20938    0.53185   1.00
C5       0.53700    1.23144    0.56519   1.00
H2       0.51481    1.24984    0.57990   1.00
H2       0.54981    1.21161    0.58737   1.00
H2       0.56062    1.25060    0.55411   1.00
C3b      0.48348    1.20756    0.46940   1.00
C5       0.46402    1.22767    0.43543   1.00
H2       0.48528    1.24670    0.42015   1.00
H2       0.45223    1.20655    0.41387   1.00
H2       0.43947    1.24594    0.44594   1.00
C4       0.50053    1.22873    0.50032   1.00
C4       0.49947    1.27127    0.49968   1.00
C3b      0.46774    1.29101    0.51695   1.00
C5       0.43461    1.26937    0.53622   1.00
H2       0.44586    1.25129    0.56058   1.00
H2       0.41223    1.28949    0.54822   1.00
H2       0.42010    1.24995    0.51477   1.00
C3b      0.53019    1.29204    0.48180   1.00
C5       0.56437    1.27152    0.46317   1.00
H2       0.55405    1.25217    0.43937   1.00
H2       0.58573    1.29235    0.45055   1.00
H2       0.57982    1.25350    0.48517   1.00
C3a      0.46706    1.33155    0.51615   1.00
H1       0.44281    1.34700    0.52934   1.00
C3a      0.52883    1.33257    0.48138   1.00
H1       0.55229    1.34881    0.46771   1.00
C2       0.49744    1.35243    0.49846   1.00
C2       0.35243    1.00154    0.49744   1.00
C3a      0.33116    1.03212    0.48058   1.00
H1       0.34631    1.05622    0.46676   1.00
C3a      0.33296    0.97035    0.51532   1.00
H1       0.34949    0.94673    0.52834   1.00
C3b      0.29062    1.03185    0.48140   1.00
C5       0.26856    1.06519    0.46300   1.00
H2       0.25016    1.07990    0.48519   1.00
H2       0.28839    1.08737    0.45019   1.00
H2       0.24940    1.05411    0.43938   1.00
C3b      0.29244    0.96940    0.51652   1.00
C5       0.27233    0.93543    0.53598   1.00
H2       0.25330    0.92015    0.51472   1.00
H2       0.29345    0.91387    0.54777   1.00
H2       0.25406    0.94594    0.56053   1.00
C4       0.27127    1.00032    0.49947   1.00
C4       0.22873    0.99968    0.50053   1.00
C3b      0.20899    1.01695    0.53226   1.00
C5       0.23063    1.03622    0.56539   1.00
H2       0.24871    1.06058    0.55414   1.00
H2       0.21051    1.04822    0.58777   1.00
H2       0.25005    1.01477    0.57990   1.00
C3b      0.20796    0.98180    0.46981   1.00
C5       0.22848    0.96317    0.43563   1.00
H2       0.24783    0.93937    0.44595   1.00
H2       0.20765    0.95055    0.41427   1.00
H2       0.24650    0.98517    0.42018   1.00
C3a      0.16845    1.01615    0.53294   1.00
H1       0.15300    1.02934    0.55719   1.00
C3a      0.16743    0.98138    0.47117   1.00
H1       0.15119    0.96771    0.44771   1.00
C2       0.14757    0.99846    0.50256   1.00
C2       0.64757    1.00154    0.50256   1.00
C3a      0.66884    1.03212    0.51942   1.00
H1       0.65369    1.05622    0.53324   1.00
C3a      0.66704    0.97035    0.48468   1.00
H1       0.65051    0.94673    0.47166   1.00
C3b      0.70938    1.03185    0.51860   1.00
C5       0.73144    1.06519    0.53700   1.00
H2       0.74984    1.07990    0.51481   1.00
H2       0.71161    1.08737    0.54981   1.00
H2       0.75060    1.05411    0.56062   1.00
C3b      0.70756    0.96940    0.48348   1.00
C5       0.72767    0.93543    0.46402   1.00
H2       0.74670    0.92015    0.48528   1.00
H2       0.70655    0.91387    0.45223   1.00
H2       0.74594    0.94594    0.43947   1.00
C4       0.72873    1.00032    0.50053   1.00
C4       0.77127    0.99968    0.49947   1.00
C3b      0.79101    1.01695    0.46774   1.00
C5       0.76937    1.03622    0.43461   1.00
H2       0.75129    1.06058    0.44586   1.00
H2       0.78949    1.04822    0.41223   1.00
H2       0.74995    1.01477    0.42010   1.00
C3b      0.79204    0.98180    0.53019   1.00
C5       0.77152    0.96317    0.56437   1.00
H2       0.75217    0.93937    0.55405   1.00
H2       0.79235    0.95055    0.58573   1.00
H2       0.75350    0.98517    0.57982   1.00
C3a      0.83155    1.01615    0.46706   1.00
H1       0.84700    1.02934    0.44281   1.00
C3a      0.83257    0.98138    0.52883   1.00
H1       0.84881    0.96771    0.55229   1.00
C2       0.85243    0.99846    0.49744   1.00
C2       0.49744    0.85243    0.50154   1.00
C3a      0.48058    0.83116    0.53212   1.00
H1       0.46676    0.84631    0.55622   1.00
C3a      0.51532    0.83296    0.47035   1.00
H1       0.52834    0.84949    0.44673   1.00
C3b      0.48140    0.79062    0.53185   1.00
C5       0.46300    0.76856    0.56519   1.00
H2       0.48519    0.75016    0.57990   1.00
H2       0.45019    0.78839    0.58737   1.00
H2       0.43938    0.74940    0.55411   1.00
C3b      0.51652    0.79244    0.46940   1.00
C5       0.53598    0.77233    0.43543   1.00
H2       0.51472    0.75330    0.42015   1.00
H2       0.54777    0.79345    0.41387   1.00
H2       0.56053    0.75406    0.44594   1.00
C4       0.49947    0.77127    0.50032   1.00
C4       0.50053    0.72873    0.49968   1.00
C3b      0.53226    0.70899    0.51695   1.00
C5       0.56539    0.73063    0.53622   1.00
H2       0.55414    0.74871    0.56058   1.00
H2       0.58777    0.71051    0.54822   1.00
H2       0.57990    0.75005    0.51477   1.00
C3b      0.46981    0.70796    0.48180   1.00
C5       0.43563    0.72848    0.46317   1.00
H2       0.44595    0.74783    0.43937   1.00
H2       0.41427    0.70765    0.45055   1.00
H2       0.42018    0.74650    0.48517   1.00
C3a      0.53294    0.66845    0.51615   1.00
H1       0.55719    0.65300    0.52934   1.00
C3a      0.47117    0.66743    0.48138   1.00
H1       0.44771    0.65119    0.46771   1.00
C2       0.50256    0.64757    0.49846   1.00
C2       0.50154    0.99744    0.35243   1.00
C3a      0.53212    0.98058    0.33116   1.00
H1       0.55622    0.96676    0.34631   1.00
C3a      0.47035    1.01532    0.33296   1.00
H1       0.44673    1.02834    0.34949   1.00
C3b      0.53185    0.98140    0.29062   1.00
C5       0.56519    0.96300    0.26856   1.00
H2       0.57990    0.98519    0.25016   1.00
H2       0.58737    0.95019    0.28839   1.00
H2       0.55411    0.93938    0.24940   1.00
C3b      0.46940    1.01652    0.29244   1.00
C5       0.43543    1.03598    0.27233   1.00
H2       0.42015    1.01472    0.25330   1.00
H2       0.41387    1.04777    0.29345   1.00
H2       0.44594    1.06053    0.25406   1.00
C4       0.50032    0.99947    0.27127   1.00
C4       0.49968    1.00053    0.22873   1.00
C3b      0.51695    1.03226    0.20899   1.00
C5       0.53622    1.06539    0.23063   1.00
H2       0.56058    1.05414    0.24871   1.00
H2       0.54822    1.08777    0.21051   1.00
H2       0.51477    1.07990    0.25005   1.00
C3b      0.48180    0.96981    0.20796   1.00
C5       0.46317    0.93563    0.22848   1.00
H2       0.43937    0.94595    0.24783   1.00
H2       0.45055    0.91427    0.20765   1.00
H2       0.48517    0.92018    0.24650   1.00
C3a      0.51615    1.03294    0.16845   1.00
H1       0.52934    1.05719    0.15300   1.00
C3a      0.48138    0.97117    0.16743   1.00
H1       0.46771    0.94771    0.15119   1.00
C2       0.49846    1.00256    0.14757   1.00
C2       1.00154    0.50256    0.64757   1.00
C3a      1.03212    0.51942    0.66884   1.00
H1       1.05622    0.53324    0.65369   1.00
C3a      0.97035    0.48468    0.66704   1.00
H1       0.94673    0.47166    0.65051   1.00
C3b      1.03185    0.51860    0.70938   1.00
C5       1.06519    0.53700    0.73144   1.00
H2       1.07990    0.51481    0.74984   1.00
H2       1.08737    0.54981    0.71161   1.00
H2       1.05411    0.56062    0.75060   1.00
C3b      0.96940    0.48348    0.70756   1.00
C5       0.93543    0.46402    0.72767   1.00
H2       0.92015    0.48528    0.74670   1.00
H2       0.91387    0.45223    0.70655   1.00
H2       0.94594    0.43947    0.74594   1.00
C4       1.00032    0.50053    0.72873   1.00
C4       0.99968    0.49947    0.77127   1.00
C3b      1.01695    0.46774    0.79101   1.00
C5       1.03622    0.43461    0.76937   1.00
H2       1.06058    0.44586    0.75129   1.00
H2       1.04822    0.41223    0.78949   1.00
H2       1.01477    0.42010    0.74995   1.00
C3b      0.98180    0.53019    0.79204   1.00
C5       0.96317    0.56437    0.77152   1.00
H2       0.93937    0.55405    0.75217   1.00
H2       0.95055    0.58573    0.79235   1.00
H2       0.98517    0.57982    0.75350   1.00
C3a      1.01615    0.46706    0.83155   1.00
H1       1.02934    0.44281    0.84700   1.00
C3a      0.98138    0.52883    0.83257   1.00
H1       0.96771    0.55229    0.84881   1.00
C2       0.99846    0.49744    0.85243   1.00
C2       1.00256    0.64757    0.50154   1.00
C3a      1.01942    0.66884    0.53212   1.00
H1       1.03324    0.65369    0.55622   1.00
C3a      0.98468    0.66704    0.47035   1.00
H1       0.97166    0.65051    0.44673   1.00
C3b      1.01860    0.70938    0.53185   1.00
C5       1.03700    0.73144    0.56519   1.00
H2       1.01481    0.74984    0.57990   1.00
H2       1.04981    0.71161    0.58737   1.00
H2       1.06062    0.75060    0.55411   1.00
C3b      0.98348    0.70756    0.46940   1.00
C5       0.96402    0.72767    0.43543   1.00
H2       0.98528    0.74670    0.42015   1.00
H2       0.95223    0.70655    0.41387   1.00
H2       0.93947    0.74594    0.44594   1.00
C4       1.00053    0.72873    0.50032   1.00
C4       0.99947    0.77127    0.49968   1.00
C3b      0.96774    0.79101    0.51695   1.00
C5       0.93461    0.76937    0.53622   1.00
H2       0.94586    0.75129    0.56058   1.00
H2       0.91223    0.78949    0.54822   1.00
H2       0.92010    0.74995    0.51477   1.00
C3b      1.03019    0.79204    0.48180   1.00
C5       1.06437    0.77152    0.46317   1.00
H2       1.05405    0.75217    0.43937   1.00
H2       1.08573    0.79235    0.45055   1.00
H2       1.07982    0.75350    0.48517   1.00
C3a      0.96706    0.83155    0.51615   1.00
H1       0.94281    0.84700    0.52934   1.00
C3a      1.02883    0.83257    0.48138   1.00
H1       1.05229    0.84881    0.46771   1.00
C2       0.99744    0.85243    0.49846   1.00
C2       0.85243    0.50154    0.49744   1.00
C3a      0.83116    0.53212    0.48058   1.00
H1       0.84631    0.55622    0.46676   1.00
C3a      0.83296    0.47035    0.51532   1.00
H1       0.84949    0.44673    0.52834   1.00
C3b      0.79062    0.53185    0.48140   1.00
C5       0.76856    0.56519    0.46300   1.00
H2       0.75016    0.57990    0.48519   1.00
H2       0.78839    0.58737    0.45019   1.00
H2       0.74940    0.55411    0.43938   1.00
C3b      0.79244    0.46940    0.51652   1.00
C5       0.77233    0.43543    0.53598   1.00
H2       0.75330    0.42015    0.51472   1.00
H2       0.79345    0.41387    0.54777   1.00
H2       0.75406    0.44594    0.56053   1.00
C4       0.77127    0.50032    0.49947   1.00
C4       0.72873    0.49968    0.50053   1.00
C3b      0.70899    0.51695    0.53226   1.00
C5       0.73063    0.53622    0.56539   1.00
H2       0.74871    0.56058    0.55414   1.00
H2       0.71051    0.54822    0.58777   1.00
H2       0.75005    0.51477    0.57990   1.00
C3b      0.70796    0.48180    0.46981   1.00
C5       0.72848    0.46317    0.43563   1.00
H2       0.74783    0.43937    0.44595   1.00
H2       0.70765    0.45055    0.41427   1.00
H2       0.74650    0.48517    0.42018   1.00
C3a      0.66845    0.51615    0.53294   1.00
H1       0.65300    0.52934    0.55719   1.00
C3a      0.66743    0.48138    0.47117   1.00
H1       0.65119    0.46771    0.44771   1.00
C2       0.64757    0.49846    0.50256   1.00
C2       1.14757    0.50154    0.50256   1.00
C3a      1.16884    0.53212    0.51942   1.00
H1       1.15369    0.55622    0.53324   1.00
C3a      1.16704    0.47035    0.48468   1.00
H1       1.15051    0.44673    0.47166   1.00
C3b      1.20938    0.53185    0.51860   1.00
C5       1.23144    0.56519    0.53700   1.00
H2       1.24984    0.57990    0.51481   1.00
H2       1.21161    0.58737    0.54981   1.00
H2       1.25060    0.55411    0.56062   1.00
C3b      1.20756    0.46940    0.48348   1.00
C5       1.22767    0.43543    0.46402   1.00
H2       1.24670    0.42015    0.48528   1.00
H2       1.20655    0.41387    0.45223   1.00
H2       1.24594    0.44594    0.43947   1.00
C4       1.22873    0.50032    0.50053   1.00
C4       1.27127    0.49968    0.49947   1.00
C3b      1.29101    0.51695    0.46774   1.00
C5       1.26937    0.53622    0.43461   1.00
H2       1.25129    0.56058    0.44586   1.00
H2       1.28949    0.54822    0.41223   1.00
H2       1.24995    0.51477    0.42010   1.00
C3b      1.29204    0.48180    0.53019   1.00
C5       1.27152    0.46317    0.56437   1.00
H2       1.25217    0.43937    0.55405   1.00
H2       1.29235    0.45055    0.58573   1.00
H2       1.25350    0.48517    0.57982   1.00
C3a      1.33155    0.51615    0.46706   1.00
H1       1.34700    0.52934    0.44281   1.00
C3a      1.33257    0.48138    0.52883   1.00
H1       1.34881    0.46771    0.55229   1.00
C2       1.35243    0.49846    0.49744   1.00
C2       0.99744    0.35243    0.50154   1.00
C3a      0.98058    0.33116    0.53212   1.00
H1       0.96676    0.34631    0.55622   1.00
C3a      1.01532    0.33296    0.47035   1.00
H1       1.02834    0.34949    0.44673   1.00
C3b      0.98140    0.29062    0.53185   1.00
C5       0.96300    0.26856    0.56519   1.00
H2       0.98519    0.25016    0.57990   1.00
H2       0.95019    0.28839    0.58737   1.00
H2       0.93938    0.24940    0.55411   1.00
C3b      1.01652    0.29244    0.46940   1.00
C5       1.03598    0.27233    0.43543   1.00
H2       1.01472    0.25330    0.42015   1.00
H2       1.04777    0.29345    0.41387   1.00
H2       1.06053    0.25406    0.44594   1.00
C4       0.99947    0.27127    0.50032   1.00
C4       1.00053    0.22873    0.49968   1.00
C3b      1.03226    0.20899    0.51695   1.00
C5       1.06539    0.23063    0.53622   1.00
H2       1.05414    0.24871    0.56058   1.00
H2       1.08777    0.21051    0.54822   1.00
H2       1.07990    0.25005    0.51477   1.00
C3b      0.96981    0.20796    0.48180   1.00
C5       0.93563    0.22848    0.46317   1.00
H2       0.94595    0.24783    0.43937   1.00
H2       0.91427    0.20765    0.45055   1.00
H2       0.92018    0.24650    0.48517   1.00
C3a      1.03294    0.16845    0.51615   1.00
H1       1.05719    0.15300    0.52934   1.00
C3a      0.97117    0.16743    0.48138   1.00
H1       0.94771    0.15119    0.46771   1.00
C2       1.00256    0.14757    0.49846   1.00
C2       1.00154    0.49744    0.35243   1.00
C3a      1.03212    0.48058    0.33116   1.00
H1       1.05622    0.46676    0.34631   1.00
C3a      0.97035    0.51532    0.33296   1.00
H1       0.94673    0.52834    0.34949   1.00
C3b      1.03185    0.48140    0.29062   1.00
C5       1.06519    0.46300    0.26856   1.00
H2       1.07990    0.48519    0.25016   1.00
H2       1.08737    0.45019    0.28839   1.00
H2       1.05411    0.43938    0.24940   1.00
C3b      0.96940    0.51652    0.29244   1.00
C5       0.93543    0.53598    0.27233   1.00
H2       0.92015    0.51472    0.25330   1.00
H2       0.91387    0.54777    0.29345   1.00
H2       0.94594    0.56053    0.25406   1.00
C4       1.00032    0.49947    0.27127   1.00
C4       0.99968    0.50053    0.22873   1.00
C3b      1.01695    0.53226    0.20899   1.00
C5       1.03622    0.56539    0.23063   1.00
H2       1.06058    0.55414    0.24871   1.00
H2       1.04822    0.58777    0.21051   1.00
H2       1.01477    0.57990    0.25005   1.00
C3b      0.98180    0.46981    0.20796   1.00
C5       0.96317    0.43563    0.22848   1.00
H2       0.93937    0.44595    0.24783   1.00
H2       0.95055    0.41427    0.20765   1.00
H2       0.98517    0.42018    0.24650   1.00
C3a      1.01615    0.53294    0.16845   1.00
H1       1.02934    0.55719    0.15300   1.00
C3a      0.98138    0.47117    0.16743   1.00
H1       0.96771    0.44771    0.15119   1.00
C2       0.99846    0.50256    0.14757   1.00
