data_IRMOF10_SG202_interpen_Ligand7lp_label_g.

_audit_creation_method             'generated by an auxiliary program of Tobunporous'

_symmetry_space_group_name_H-M     'P 1'
_symmetry_Int_Tables_number        1
_symmetry_cell_setting             triclinic

_cell_length_a                    34.2800
_cell_length_b                    34.2800
_cell_length_c                    34.2800
_cell_angle_alpha                 90.0000
_cell_angle_beta                  90.0000
_cell_angle_gamma                 90.0000

loop_
_atom_site_label
_atom_site_fract_x
_atom_site_fract_y
_atom_site_fract_z
_atom_site_occupancy
O1       0.75000    0.75000    0.75000   1.00
Zn1      0.71720    0.78280    0.78280   1.00
Zn1      0.78280    0.71720    0.78280   1.00
Zn1      0.78280    0.78280    0.71720   1.00
Zn1      0.71720    0.71720    0.71720   1.00
O2       0.72650    0.77350    0.83820   1.00
O2       0.72650    0.83820    0.77350   1.00
O2       0.66180    0.77350    0.77350   1.00
O2       0.77350    0.72650    0.83820   1.00
O2       0.83820    0.72650    0.77350   1.00
O2       0.77350    0.66180    0.77350   1.00
O2       0.77350    0.83820    0.72650   1.00
O2       0.83820    0.77350    0.72650   1.00
O2       0.77350    0.77350    0.66180   1.00
O2       0.66180    0.72650    0.72650   1.00
O2       0.72650    0.66180    0.72650   1.00
O2       0.72650    0.72650    0.66180   1.00
C1       0.75000    0.75000    0.85520   1.00
C1       0.75000    0.85520    0.75000   1.00
C1       0.64480    0.75000    0.75000   1.00
C1       0.85520    0.75000    0.75000   1.00
C1       0.75000    0.64480    0.75000   1.00
C1       0.75000    0.75000    0.64480   1.00
O1       0.25000    0.25000    0.75000   1.00
Zn1      0.21720    0.28280    0.78280   1.00
Zn1      0.28280    0.21720    0.78280   1.00
Zn1      0.28280    0.28280    0.71720   1.00
Zn1      0.21720    0.21720    0.71720   1.00
O2       0.22650    0.27350    0.83820   1.00
O2       0.22650    0.33820    0.77350   1.00
O2       0.16180    0.27350    0.77350   1.00
O2       0.27350    0.22650    0.83820   1.00
O2       0.33820    0.22650    0.77350   1.00
O2       0.27350    0.16180    0.77350   1.00
O2       0.27350    0.33820    0.72650   1.00
O2       0.33820    0.27350    0.72650   1.00
O2       0.27350    0.27350    0.66180   1.00
O2       0.16180    0.22650    0.72650   1.00
O2       0.22650    0.16180    0.72650   1.00
O2       0.22650    0.22650    0.66180   1.00
C1       0.25000    0.25000    0.85520   1.00
C1       0.25000    0.35520    0.75000   1.00
C1       0.14480    0.25000    0.75000   1.00
C1       0.35520    0.25000    0.75000   1.00
C1       0.25000    0.14480    0.75000   1.00
C1       0.25000    0.25000    0.64480   1.00
O1       0.25000    0.75000    0.25000   1.00
Zn1      0.21720    0.78280    0.28280   1.00
Zn1      0.28280    0.71720    0.28280   1.00
Zn1      0.28280    0.78280    0.21720   1.00
Zn1      0.21720    0.71720    0.21720   1.00
O2       0.22650    0.77350    0.33820   1.00
O2       0.22650    0.83820    0.27350   1.00
O2       0.16180    0.77350    0.27350   1.00
O2       0.27350    0.72650    0.33820   1.00
O2       0.33820    0.72650    0.27350   1.00
O2       0.27350    0.66180    0.27350   1.00
O2       0.27350    0.83820    0.22650   1.00
O2       0.33820    0.77350    0.22650   1.00
O2       0.27350    0.77350    0.16180   1.00
O2       0.16180    0.72650    0.22650   1.00
O2       0.22650    0.66180    0.22650   1.00
O2       0.22650    0.72650    0.16180   1.00
C1       0.25000    0.75000    0.35520   1.00
C1       0.25000    0.85520    0.25000   1.00
C1       0.14480    0.75000    0.25000   1.00
C1       0.35520    0.75000    0.25000   1.00
C1       0.25000    0.64480    0.25000   1.00
C1       0.25000    0.75000    0.14480   1.00
O1       0.75000    0.25000    0.25000   1.00
Zn1      0.71720    0.28280    0.28280   1.00
Zn1      0.78280    0.21720    0.28280   1.00
Zn1      0.78280    0.28280    0.21720   1.00
Zn1      0.71720    0.21720    0.21720   1.00
O2       0.72650    0.27350    0.33820   1.00
O2       0.72650    0.33820    0.27350   1.00
O2       0.66180    0.27350    0.27350   1.00
O2       0.77350    0.22650    0.33820   1.00
O2       0.83820    0.22650    0.27350   1.00
O2       0.77350    0.16180    0.27350   1.00
O2       0.77350    0.33820    0.22650   1.00
O2       0.83820    0.27350    0.22650   1.00
O2       0.77350    0.27350    0.16180   1.00
O2       0.66180    0.22650    0.22650   1.00
O2       0.72650    0.16180    0.22650   1.00
O2       0.72650    0.22650    0.16180   1.00
C1       0.75000    0.25000    0.35520   1.00
C1       0.75000    0.35520    0.25000   1.00
C1       0.64480    0.25000    0.25000   1.00
C1       0.85520    0.25000    0.25000   1.00
C1       0.75000    0.14480    0.25000   1.00
C1       0.75000    0.25000    0.14480   1.00
O1       0.25000    0.25000    0.25000   1.00
Zn1      0.28280    0.21720    0.21720   1.00
Zn1      0.21720    0.28280    0.21720   1.00
Zn1      0.21720    0.21720    0.28280   1.00
Zn1      0.28280    0.28280    0.28280   1.00
O2       0.27350    0.22650    0.16180   1.00
O2       0.27350    0.16180    0.22650   1.00
O2       0.33820    0.22650    0.22650   1.00
O2       0.22650    0.27350    0.16180   1.00
O2       0.16180    0.27350    0.22650   1.00
O2       0.22650    0.33820    0.22650   1.00
O2       0.22650    0.16180    0.27350   1.00
O2       0.16180    0.22650    0.27350   1.00
O2       0.22650    0.22650    0.33820   1.00
O2       0.33820    0.27350    0.27350   1.00
O2       0.27350    0.33820    0.27350   1.00
O2       0.27350    0.27350    0.33820   1.00
C1       0.25000    0.25000    0.14480   1.00
C1       0.25000    0.14480    0.25000   1.00
C1       0.35520    0.25000    0.25000   1.00
C1       0.14480    0.25000    0.25000   1.00
C1       0.25000    0.35520    0.25000   1.00
C1       0.25000    0.25000    0.35520   1.00
O1       0.75000    0.75000    0.25000   1.00
Zn1      0.78280    0.71720    0.21720   1.00
Zn1      0.71720    0.78280    0.21720   1.00
Zn1      0.71720    0.71720    0.28280   1.00
Zn1      0.78280    0.78280    0.28280   1.00
O2       0.77350    0.72650    0.16180   1.00
O2       0.77350    0.66180    0.22650   1.00
O2       0.83820    0.72650    0.22650   1.00
O2       0.72650    0.77350    0.16180   1.00
O2       0.66180    0.77350    0.22650   1.00
O2       0.72650    0.83820    0.22650   1.00
O2       0.72650    0.66180    0.27350   1.00
O2       0.66180    0.72650    0.27350   1.00
O2       0.72650    0.72650    0.33820   1.00
O2       0.83820    0.77350    0.27350   1.00
O2       0.77350    0.83820    0.27350   1.00
O2       0.77350    0.77350    0.33820   1.00
C1       0.75000    0.75000    0.14480   1.00
C1       0.75000    0.64480    0.25000   1.00
C1       0.85520    0.75000    0.25000   1.00
C1       0.64480    0.75000    0.25000   1.00
C1       0.75000    0.85520    0.25000   1.00
C1       0.75000    0.75000    0.35520   1.00
O1       0.75000    0.25000    0.75000   1.00
Zn1      0.78280    0.21720    0.71720   1.00
Zn1      0.71720    0.28280    0.71720   1.00
Zn1      0.71720    0.21720    0.78280   1.00
Zn1      0.78280    0.28280    0.78280   1.00
O2       0.77350    0.22650    0.66180   1.00
O2       0.77350    0.16180    0.72650   1.00
O2       0.83820    0.22650    0.72650   1.00
O2       0.72650    0.27350    0.66180   1.00
O2       0.66180    0.27350    0.72650   1.00
O2       0.72650    0.33820    0.72650   1.00
O2       0.72650    0.16180    0.77350   1.00
O2       0.66180    0.22650    0.77350   1.00
O2       0.72650    0.22650    0.83820   1.00
O2       0.83820    0.27350    0.77350   1.00
O2       0.77350    0.33820    0.77350   1.00
O2       0.77350    0.27350    0.83820   1.00
C1       0.75000    0.25000    0.64480   1.00
C1       0.75000    0.14480    0.75000   1.00
C1       0.85520    0.25000    0.75000   1.00
C1       0.64480    0.25000    0.75000   1.00
C1       0.75000    0.35520    0.75000   1.00
C1       0.75000    0.25000    0.85520   1.00
O1       0.25000    0.75000    0.75000   1.00
Zn1      0.28280    0.71720    0.71720   1.00
Zn1      0.21720    0.78280    0.71720   1.00
Zn1      0.21720    0.71720    0.78280   1.00
Zn1      0.28280    0.78280    0.78280   1.00
O2       0.27350    0.72650    0.66180   1.00
O2       0.27350    0.66180    0.72650   1.00
O2       0.33820    0.72650    0.72650   1.00
O2       0.22650    0.77350    0.66180   1.00
O2       0.16180    0.77350    0.72650   1.00
O2       0.22650    0.83820    0.72650   1.00
O2       0.22650    0.66180    0.77350   1.00
O2       0.16180    0.72650    0.77350   1.00
O2       0.22650    0.72650    0.83820   1.00
O2       0.33820    0.77350    0.77350   1.00
O2       0.27350    0.83820    0.77350   1.00
O2       0.27350    0.77350    0.83820   1.00
C1       0.25000    0.75000    0.64480   1.00
C1       0.25000    0.64480    0.75000   1.00
C1       0.35520    0.75000    0.75000   1.00
C1       0.14480    0.75000    0.75000   1.00
C1       0.25000    0.85520    0.75000   1.00
C1       0.25000    0.75000    0.85520   1.00
O1       1.00000    1.00000    1.00000   1.00
Zn1      0.96720    1.03280    1.03280   1.00
Zn1      1.03280    0.96720    1.03280   1.00
Zn1      1.03280    1.03280    0.96720   1.00
Zn1      0.96720    0.96720    0.96720   1.00
O2       0.97650    1.02350    1.08820   1.00
O2       0.97650    1.08820    1.02350   1.00
O2       0.91180    1.02350    1.02350   1.00
O2       1.02350    0.97650    1.08820   1.00
O2       1.08820    0.97650    1.02350   1.00
O2       1.02350    0.91180    1.02350   1.00
O2       1.02350    1.08820    0.97650   1.00
O2       1.08820    1.02350    0.97650   1.00
O2       1.02350    1.02350    0.91180   1.00
O2       0.91180    0.97650    0.97650   1.00
O2       0.97650    0.91180    0.97650   1.00
O2       0.97650    0.97650    0.91180   1.00
C1       1.00000    1.00000    1.10520   1.00
C1       1.00000    1.10520    1.00000   1.00
C1       0.89480    1.00000    1.00000   1.00
C1       1.10520    1.00000    1.00000   1.00
C1       1.00000    0.89480    1.00000   1.00
C1       1.00000    1.00000    0.89480   1.00
O1       0.50000    0.50000    1.00000   1.00
Zn1      0.46720    0.53280    1.03280   1.00
Zn1      0.53280    0.46720    1.03280   1.00
Zn1      0.53280    0.53280    0.96720   1.00
Zn1      0.46720    0.46720    0.96720   1.00
O2       0.47650    0.52350    1.08820   1.00
O2       0.47650    0.58820    1.02350   1.00
O2       0.41180    0.52350    1.02350   1.00
O2       0.52350    0.47650    1.08820   1.00
O2       0.58820    0.47650    1.02350   1.00
O2       0.52350    0.41180    1.02350   1.00
O2       0.52350    0.58820    0.97650   1.00
O2       0.58820    0.52350    0.97650   1.00
O2       0.52350    0.52350    0.91180   1.00
O2       0.41180    0.47650    0.97650   1.00
O2       0.47650    0.41180    0.97650   1.00
O2       0.47650    0.47650    0.91180   1.00
C1       0.50000    0.50000    1.10520   1.00
C1       0.50000    0.60520    1.00000   1.00
C1       0.39480    0.50000    1.00000   1.00
C1       0.60520    0.50000    1.00000   1.00
C1       0.50000    0.39480    1.00000   1.00
C1       0.50000    0.50000    0.89480   1.00
O1       0.50000    1.00000    0.50000   1.00
Zn1      0.46720    1.03280    0.53280   1.00
Zn1      0.53280    0.96720    0.53280   1.00
Zn1      0.53280    1.03280    0.46720   1.00
Zn1      0.46720    0.96720    0.46720   1.00
O2       0.47650    1.02350    0.58820   1.00
O2       0.47650    1.08820    0.52350   1.00
O2       0.41180    1.02350    0.52350   1.00
O2       0.52350    0.97650    0.58820   1.00
O2       0.58820    0.97650    0.52350   1.00
O2       0.52350    0.91180    0.52350   1.00
O2       0.52350    1.08820    0.47650   1.00
O2       0.58820    1.02350    0.47650   1.00
O2       0.52350    1.02350    0.41180   1.00
O2       0.41180    0.97650    0.47650   1.00
O2       0.47650    0.91180    0.47650   1.00
O2       0.47650    0.97650    0.41180   1.00
C1       0.50000    1.00000    0.60520   1.00
C1       0.50000    1.10520    0.50000   1.00
C1       0.39480    1.00000    0.50000   1.00
C1       0.60520    1.00000    0.50000   1.00
C1       0.50000    0.89480    0.50000   1.00
C1       0.50000    1.00000    0.39480   1.00
O1       1.00000    0.50000    0.50000   1.00
Zn1      0.96720    0.53280    0.53280   1.00
Zn1      1.03280    0.46720    0.53280   1.00
Zn1      1.03280    0.53280    0.46720   1.00
Zn1      0.96720    0.46720    0.46720   1.00
O2       0.97650    0.52350    0.58820   1.00
O2       0.97650    0.58820    0.52350   1.00
O2       0.91180    0.52350    0.52350   1.00
O2       1.02350    0.47650    0.58820   1.00
O2       1.08820    0.47650    0.52350   1.00
O2       1.02350    0.41180    0.52350   1.00
O2       1.02350    0.58820    0.47650   1.00
O2       1.08820    0.52350    0.47650   1.00
O2       1.02350    0.52350    0.41180   1.00
O2       0.91180    0.47650    0.47650   1.00
O2       0.97650    0.41180    0.47650   1.00
O2       0.97650    0.47650    0.41180   1.00
C1       1.00000    0.50000    0.60520   1.00
C1       1.00000    0.60520    0.50000   1.00
C1       0.89480    0.50000    0.50000   1.00
C1       1.10520    0.50000    0.50000   1.00
C1       1.00000    0.39480    0.50000   1.00
C1       1.00000    0.50000    0.39480   1.00
O1       0.50000    0.50000    0.50000   1.00
Zn1      0.53280    0.46720    0.46720   1.00
Zn1      0.46720    0.53280    0.46720   1.00
Zn1      0.46720    0.46720    0.53280   1.00
Zn1      0.53280    0.53280    0.53280   1.00
O2       0.52350    0.47650    0.41180   1.00
O2       0.52350    0.41180    0.47650   1.00
O2       0.58820    0.47650    0.47650   1.00
O2       0.47650    0.52350    0.41180   1.00
O2       0.41180    0.52350    0.47650   1.00
O2       0.47650    0.58820    0.47650   1.00
O2       0.47650    0.41180    0.52350   1.00
O2       0.41180    0.47650    0.52350   1.00
O2       0.47650    0.47650    0.58820   1.00
O2       0.58820    0.52350    0.52350   1.00
O2       0.52350    0.58820    0.52350   1.00
O2       0.52350    0.52350    0.58820   1.00
C1       0.50000    0.50000    0.39480   1.00
C1       0.50000    0.39480    0.50000   1.00
C1       0.60520    0.50000    0.50000   1.00
C1       0.39480    0.50000    0.50000   1.00
C1       0.50000    0.60520    0.50000   1.00
C1       0.50000    0.50000    0.60520   1.00
O1       1.00000    1.00000    0.50000   1.00
Zn1      1.03280    0.96720    0.46720   1.00
Zn1      0.96720    1.03280    0.46720   1.00
Zn1      0.96720    0.96720    0.53280   1.00
Zn1      1.03280    1.03280    0.53280   1.00
O2       1.02350    0.97650    0.41180   1.00
O2       1.02350    0.91180    0.47650   1.00
O2       1.08820    0.97650    0.47650   1.00
O2       0.97650    1.02350    0.41180   1.00
O2       0.91180    1.02350    0.47650   1.00
O2       0.97650    1.08820    0.47650   1.00
O2       0.97650    0.91180    0.52350   1.00
O2       0.91180    0.97650    0.52350   1.00
O2       0.97650    0.97650    0.58820   1.00
O2       1.08820    1.02350    0.52350   1.00
O2       1.02350    1.08820    0.52350   1.00
O2       1.02350    1.02350    0.58820   1.00
C1       1.00000    1.00000    0.39480   1.00
C1       1.00000    0.89480    0.50000   1.00
C1       1.10520    1.00000    0.50000   1.00
C1       0.89480    1.00000    0.50000   1.00
C1       1.00000    1.10520    0.50000   1.00
C1       1.00000    1.00000    0.60520   1.00
O1       1.00000    0.50000    1.00000   1.00
Zn1      1.03280    0.46720    0.96720   1.00
Zn1      0.96720    0.53280    0.96720   1.00
Zn1      0.96720    0.46720    1.03280   1.00
Zn1      1.03280    0.53280    1.03280   1.00
O2       1.02350    0.47650    0.91180   1.00
O2       1.02350    0.41180    0.97650   1.00
O2       1.08820    0.47650    0.97650   1.00
O2       0.97650    0.52350    0.91180   1.00
O2       0.91180    0.52350    0.97650   1.00
O2       0.97650    0.58820    0.97650   1.00
O2       0.97650    0.41180    1.02350   1.00
O2       0.91180    0.47650    1.02350   1.00
O2       0.97650    0.47650    1.08820   1.00
O2       1.08820    0.52350    1.02350   1.00
O2       1.02350    0.58820    1.02350   1.00
O2       1.02350    0.52350    1.08820   1.00
C1       1.00000    0.50000    0.89480   1.00
C1       1.00000    0.39480    1.00000   1.00
C1       1.10520    0.50000    1.00000   1.00
C1       0.89480    0.50000    1.00000   1.00
C1       1.00000    0.60520    1.00000   1.00
C1       1.00000    0.50000    1.10520   1.00
O1       0.50000    1.00000    1.00000   1.00
Zn1      0.53280    0.96720    0.96720   1.00
Zn1      0.46720    1.03280    0.96720   1.00
Zn1      0.46720    0.96720    1.03280   1.00
Zn1      0.53280    1.03280    1.03280   1.00
O2       0.52350    0.97650    0.91180   1.00
O2       0.52350    0.91180    0.97650   1.00
O2       0.58820    0.97650    0.97650   1.00
O2       0.47650    1.02350    0.91180   1.00
O2       0.41180    1.02350    0.97650   1.00
O2       0.47650    1.08820    0.97650   1.00
O2       0.47650    0.91180    1.02350   1.00
O2       0.41180    0.97650    1.02350   1.00
O2       0.47650    0.97650    1.08820   1.00
O2       0.58820    1.02350    1.02350   1.00
O2       0.52350    1.08820    1.02350   1.00
O2       0.52350    1.02350    1.08820   1.00
C1       0.50000    1.00000    0.89480   1.00
C1       0.50000    0.89480    1.00000   1.00
C1       0.60520    1.00000    1.00000   1.00
C1       0.39480    1.00000    1.00000   1.00
C1       0.50000    1.10520    1.00000   1.00
C1       0.50000    1.00000    1.10520   1.00
C5       0.85061    0.82715    1.13218   1.00
H2       0.82645    0.84240    1.14745   1.00
H2       0.86252    0.84850    1.11090   1.00
C5       0.88216    0.81544    1.16194   1.00
C5       0.90903    0.85022    1.17123   1.00
H2       0.90008    0.79105    1.15015   1.00
O3       0.80206    0.70199    0.98000   1.00
C4       0.74959    0.75008    1.02100   1.00
C3c      0.77276    0.77621    1.04243   1.00
H1       0.79102    0.79697    1.02725   1.00
C3d      0.72558    0.72364    1.04135   1.00
C3       0.77323    0.77567    1.08354   1.00
O2       0.79287    0.80513    1.10248   1.00
C3       0.72654    0.72252    1.08227   1.00
H1       0.70867    0.70081    1.09657   1.00
C2       0.75012    0.74845    1.10439   1.00
C5       0.78991    0.66264    0.97879   1.00
H2       0.78824    0.65121    0.94838   1.00
H2       0.76068    0.65896    0.99266   1.00
C5       0.81982    0.63860    1.00129   1.00
H2       0.82230    0.65071    1.03137   1.00
H2       0.84881    0.64219    0.98698   1.00
C5       0.80802    0.59527    1.00262   1.00
H2       0.80523    0.58306    0.97268   1.00
H2       0.77973    0.59151    1.01811   1.00
C5       0.83927    0.57149    1.02445   1.00
C5       0.66776    0.71064    1.01105   1.00
C5       0.83150    0.79319    1.11070   1.00
H2       0.67088    0.73587    0.99088   1.00
H2       0.65074    0.72016    1.03712   1.00
H2       0.84744    0.78695    1.08300   1.00
H2       0.83261    0.76614    1.12895   1.00
H2       0.86886    0.80629    1.19030   1.00
H2       0.61871    0.71235    0.94247   1.00
H2       0.59088    0.71201    0.98763   1.00
C2       0.75023    0.74733    0.89605   1.00
C3       0.72511    0.77320    0.91597   1.00
O2       0.69421    0.79041    0.89674   1.00
C3       0.77617    0.72412    0.91826   1.00
H1       0.79647    0.70477    0.90385   1.00
C3a      0.72570    0.77456    0.95713   1.00
H1       0.70475    0.79287    0.97202   1.00
C3b      0.77582    0.72464    0.95922   1.00
C4       0.75041    0.74992    0.97900   1.00
O3       0.70449    0.69537    1.02167   1.00
C5       0.70331    0.82941    0.88720   1.00
H2       0.70986    0.84690    0.91391   1.00
C5       0.66769    0.84648    0.86674   1.00
H2       0.72897    0.83084    0.86726   1.00
H2       0.64581    0.85470    0.88932   1.00
H2       0.65429    0.82271    0.84907   1.00
C5       0.67762    0.88180    0.84082   1.00
H2       0.69371    0.90391    0.85824   1.00
C5       0.64023    0.90063    0.82453   1.00
H2       0.69562    0.87298    0.81507   1.00
C5       0.64537    0.67836    0.99017   1.00
H2       0.63641    0.65615    1.01215   1.00
H2       0.66568    0.66359    0.96952   1.00
C5       0.60967    0.69424    0.96800   1.00
C5       0.58501    0.66016    0.95225   1.00
H2       0.89391    0.87045    1.19286   1.00
C5       0.94738    0.83514    1.18912   1.00
H2       0.91567    0.86689    1.14323   1.00
C5       0.82333    0.53044    1.03337   1.00
H2       0.86649    0.56893    1.00551   1.00
H2       0.84698    0.58682    1.05293   1.00
C5       0.65047    0.93976    0.80497   1.00
H2       0.62644    0.88031    0.80211   1.00
H2       0.61876    0.90594    0.84937   1.00
H2       0.60469    0.63882    0.93602   1.00
H2       0.57024    0.64452    0.97761   1.00
C5       0.55374    0.67602    0.92417   1.00
H2       0.94271    0.80450    1.20116   1.00
H2       0.97099    0.83437    1.16571   1.00
H2       0.95685    0.85540    1.21374   1.00
H2       0.79401    0.52640    1.01820   1.00
H2       0.84478    0.50757    1.02229   1.00
H2       0.81939    0.52698    1.06621   1.00
H2       0.67943    0.93687    0.78889   1.00
H2       0.62655    0.94794    0.78336   1.00
H2       0.65299    0.96343    0.82819   1.00
H2       0.56552    0.67558    0.89307   1.00
H2       0.52653    0.65699    0.92598   1.00
H2       0.54602    0.70723    0.93266   1.00
C5       0.82715    1.13218    0.85061   1.00
H2       0.84240    1.14745    0.82645   1.00
H2       0.84850    1.11090    0.86252   1.00
C5       0.81544    1.16194    0.88216   1.00
C5       0.85022    1.17123    0.90903   1.00
H2       0.79105    1.15015    0.90008   1.00
O3       0.70199    0.98000    0.80206   1.00
C4       0.75008    1.02100    0.74959   1.00
C3c      0.77621    1.04243    0.77276   1.00
H1       0.79697    1.02725    0.79102   1.00
C3d      0.72364    1.04135    0.72558   1.00
C3       0.77567    1.08354    0.77323   1.00
O2       0.80513    1.10248    0.79287   1.00
C3       0.72252    1.08227    0.72654   1.00
H1       0.70081    1.09657    0.70867   1.00
C2       0.74845    1.10439    0.75012   1.00
C5       0.66264    0.97879    0.78991   1.00
H2       0.65121    0.94838    0.78824   1.00
H2       0.65896    0.99266    0.76068   1.00
C5       0.63860    1.00129    0.81982   1.00
H2       0.65071    1.03137    0.82230   1.00
H2       0.64219    0.98698    0.84881   1.00
C5       0.59527    1.00262    0.80802   1.00
H2       0.58306    0.97268    0.80523   1.00
H2       0.59151    1.01811    0.77973   1.00
C5       0.57149    1.02445    0.83927   1.00
C5       0.71064    1.01105    0.66776   1.00
C5       0.79319    1.11070    0.83150   1.00
H2       0.73587    0.99088    0.67088   1.00
H2       0.72016    1.03712    0.65074   1.00
H2       0.78695    1.08300    0.84744   1.00
H2       0.76614    1.12895    0.83261   1.00
H2       0.80629    1.19030    0.86886   1.00
H2       0.71235    0.94247    0.61871   1.00
H2       0.71201    0.98763    0.59088   1.00
C2       0.74733    0.89605    0.75023   1.00
C3       0.77320    0.91597    0.72511   1.00
O2       0.79041    0.89674    0.69421   1.00
C3       0.72412    0.91826    0.77617   1.00
H1       0.70477    0.90385    0.79647   1.00
C3a      0.77456    0.95713    0.72570   1.00
H1       0.79287    0.97202    0.70475   1.00
C3b      0.72464    0.95922    0.77582   1.00
C4       0.74992    0.97900    0.75041   1.00
O3       0.69537    1.02167    0.70449   1.00
C5       0.82941    0.88720    0.70331   1.00
H2       0.84690    0.91391    0.70986   1.00
C5       0.84648    0.86674    0.66769   1.00
H2       0.83084    0.86726    0.72897   1.00
H2       0.85470    0.88932    0.64581   1.00
H2       0.82271    0.84907    0.65429   1.00
C5       0.88180    0.84082    0.67762   1.00
H2       0.90391    0.85824    0.69371   1.00
C5       0.90063    0.82453    0.64023   1.00
H2       0.87298    0.81507    0.69562   1.00
C5       0.67836    0.99017    0.64537   1.00
H2       0.65615    1.01215    0.63641   1.00
H2       0.66359    0.96952    0.66568   1.00
C5       0.69424    0.96800    0.60967   1.00
C5       0.66016    0.95225    0.58501   1.00
H2       0.87045    1.19286    0.89391   1.00
C5       0.83514    1.18912    0.94738   1.00
H2       0.86689    1.14323    0.91567   1.00
C5       0.53044    1.03337    0.82333   1.00
H2       0.56893    1.00551    0.86649   1.00
H2       0.58682    1.05293    0.84698   1.00
C5       0.93976    0.80497    0.65047   1.00
H2       0.88031    0.80211    0.62644   1.00
H2       0.90594    0.84937    0.61876   1.00
H2       0.63882    0.93602    0.60469   1.00
H2       0.64452    0.97761    0.57024   1.00
C5       0.67602    0.92417    0.55374   1.00
H2       0.80450    1.20116    0.94271   1.00
H2       0.83437    1.16571    0.97099   1.00
H2       0.85540    1.21374    0.95685   1.00
H2       0.52640    1.01820    0.79401   1.00
H2       0.50757    1.02229    0.84478   1.00
H2       0.52698    1.06621    0.81939   1.00
H2       0.93687    0.78889    0.67943   1.00
H2       0.94794    0.78336    0.62655   1.00
H2       0.96343    0.82819    0.65299   1.00
H2       0.67558    0.89307    0.56552   1.00
H2       0.65699    0.92598    0.52653   1.00
H2       0.70723    0.93266    0.54602   1.00
C5       0.36782    0.85061    0.67285   1.00
H2       0.35255    0.82645    0.65760   1.00
H2       0.38910    0.86252    0.65150   1.00
C5       0.33806    0.88216    0.68456   1.00
C5       0.32877    0.90903    0.64978   1.00
H2       0.34985    0.90008    0.70895   1.00
O3       0.52000    0.80206    0.79801   1.00
C4       0.47900    0.74959    0.74992   1.00
C3c      0.45757    0.77276    0.72379   1.00
H1       0.47275    0.79102    0.70303   1.00
C3d      0.45865    0.72558    0.77636   1.00
C3       0.41646    0.77323    0.72433   1.00
O2       0.39752    0.79287    0.69487   1.00
C3       0.41773    0.72654    0.77748   1.00
H1       0.40343    0.70867    0.79919   1.00
C2       0.39561    0.75012    0.75155   1.00
C5       0.52121    0.78991    0.83736   1.00
H2       0.55162    0.78824    0.84879   1.00
H2       0.50734    0.76068    0.84104   1.00
C5       0.49871    0.81982    0.86140   1.00
H2       0.46863    0.82230    0.84929   1.00
H2       0.51302    0.84881    0.85781   1.00
C5       0.49738    0.80802    0.90473   1.00
H2       0.52732    0.80523    0.91694   1.00
H2       0.48189    0.77973    0.90849   1.00
C5       0.47555    0.83927    0.92851   1.00
C5       0.48895    0.66776    0.78936   1.00
C5       0.38930    0.83150    0.70681   1.00
H2       0.50912    0.67088    0.76413   1.00
H2       0.46288    0.65074    0.77984   1.00
H2       0.41700    0.84744    0.71305   1.00
H2       0.37105    0.83261    0.73386   1.00
H2       0.30970    0.86886    0.69371   1.00
H2       0.55753    0.61871    0.78765   1.00
H2       0.51237    0.59088    0.78799   1.00
C2       0.60395    0.75023    0.75267   1.00
C3       0.58403    0.72511    0.72680   1.00
O2       0.60326    0.69421    0.70959   1.00
C3       0.58174    0.77617    0.77588   1.00
H1       0.59615    0.79647    0.79523   1.00
C3a      0.54287    0.72570    0.72544   1.00
H1       0.52798    0.70475    0.70713   1.00
C3b      0.54078    0.77582    0.77536   1.00
C4       0.52100    0.75041    0.75008   1.00
O3       0.47833    0.70449    0.80463   1.00
C5       0.61280    0.70331    0.67059   1.00
H2       0.58609    0.70986    0.65310   1.00
C5       0.63326    0.66769    0.65352   1.00
H2       0.63274    0.72897    0.66916   1.00
H2       0.61068    0.64581    0.64530   1.00
H2       0.65093    0.65429    0.67729   1.00
C5       0.65918    0.67762    0.61820   1.00
H2       0.64176    0.69371    0.59609   1.00
C5       0.67547    0.64023    0.59937   1.00
H2       0.68493    0.69562    0.62702   1.00
C5       0.50983    0.64537    0.82164   1.00
H2       0.48785    0.63641    0.84385   1.00
H2       0.53048    0.66568    0.83641   1.00
C5       0.53200    0.60967    0.80576   1.00
C5       0.54775    0.58501    0.83984   1.00
H2       0.30714    0.89391    0.62955   1.00
C5       0.31088    0.94738    0.66486   1.00
H2       0.35677    0.91567    0.63311   1.00
C5       0.46663    0.82333    0.96956   1.00
H2       0.49449    0.86649    0.93107   1.00
H2       0.44707    0.84698    0.91318   1.00
C5       0.69503    0.65047    0.56024   1.00
H2       0.69789    0.62644    0.61969   1.00
H2       0.65063    0.61876    0.59406   1.00
H2       0.56398    0.60469    0.86118   1.00
H2       0.52239    0.57024    0.85548   1.00
C5       0.57583    0.55374    0.82398   1.00
H2       0.29884    0.94271    0.69550   1.00
H2       0.33429    0.97099    0.66563   1.00
H2       0.28626    0.95685    0.64460   1.00
H2       0.48180    0.79401    0.97360   1.00
H2       0.47771    0.84478    0.99243   1.00
H2       0.43379    0.81939    0.97302   1.00
H2       0.71111    0.67943    0.56313   1.00
H2       0.71664    0.62655    0.55206   1.00
H2       0.67181    0.65299    0.53657   1.00
H2       0.60693    0.56552    0.82442   1.00
H2       0.57402    0.52653    0.84301   1.00
H2       0.56734    0.54602    0.79277   1.00
C5       1.13218    0.85061    0.82715   1.00
H2       1.14745    0.82645    0.84240   1.00
H2       1.11090    0.86252    0.84850   1.00
C5       1.16194    0.88216    0.81544   1.00
C5       1.17123    0.90903    0.85022   1.00
H2       1.15015    0.90008    0.79105   1.00
O3       0.98000    0.80206    0.70199   1.00
C4       1.02100    0.74959    0.75008   1.00
C3c      1.04243    0.77276    0.77621   1.00
H1       1.02725    0.79102    0.79697   1.00
C3d      1.04135    0.72558    0.72364   1.00
C3       1.08354    0.77323    0.77567   1.00
O2       1.10248    0.79287    0.80513   1.00
C3       1.08227    0.72654    0.72252   1.00
H1       1.09657    0.70867    0.70081   1.00
C2       1.10439    0.75012    0.74845   1.00
C5       0.97879    0.78991    0.66264   1.00
H2       0.94838    0.78824    0.65121   1.00
H2       0.99266    0.76068    0.65896   1.00
C5       1.00129    0.81982    0.63860   1.00
H2       1.03137    0.82230    0.65071   1.00
H2       0.98698    0.84881    0.64219   1.00
C5       1.00262    0.80802    0.59527   1.00
H2       0.97268    0.80523    0.58306   1.00
H2       1.01811    0.77973    0.59151   1.00
C5       1.02445    0.83927    0.57149   1.00
C5       1.01105    0.66776    0.71064   1.00
C5       1.11070    0.83150    0.79319   1.00
H2       0.99088    0.67088    0.73587   1.00
H2       1.03712    0.65074    0.72016   1.00
H2       1.08300    0.84744    0.78695   1.00
H2       1.12895    0.83261    0.76614   1.00
H2       1.19030    0.86886    0.80629   1.00
H2       0.94247    0.61871    0.71235   1.00
H2       0.98763    0.59088    0.71201   1.00
C2       0.89605    0.75023    0.74733   1.00
C3       0.91597    0.72511    0.77320   1.00
O2       0.89674    0.69421    0.79041   1.00
C3       0.91826    0.77617    0.72412   1.00
H1       0.90385    0.79647    0.70477   1.00
C3a      0.95713    0.72570    0.77456   1.00
H1       0.97202    0.70475    0.79287   1.00
C3b      0.95922    0.77582    0.72464   1.00
C4       0.97900    0.75041    0.74992   1.00
O3       1.02167    0.70449    0.69537   1.00
C5       0.88720    0.70331    0.82941   1.00
H2       0.91391    0.70986    0.84690   1.00
C5       0.86674    0.66769    0.84648   1.00
H2       0.86726    0.72897    0.83084   1.00
H2       0.88932    0.64581    0.85470   1.00
H2       0.84907    0.65429    0.82271   1.00
C5       0.84082    0.67762    0.88180   1.00
H2       0.85824    0.69371    0.90391   1.00
C5       0.82453    0.64023    0.90063   1.00
H2       0.81507    0.69562    0.87298   1.00
C5       0.99017    0.64537    0.67836   1.00
H2       1.01215    0.63641    0.65615   1.00
H2       0.96952    0.66568    0.66359   1.00
C5       0.96800    0.60967    0.69424   1.00
C5       0.95225    0.58501    0.66016   1.00
H2       1.19286    0.89391    0.87045   1.00
C5       1.18912    0.94738    0.83514   1.00
H2       1.14323    0.91567    0.86689   1.00
C5       1.03337    0.82333    0.53044   1.00
H2       1.00551    0.86649    0.56893   1.00
H2       1.05293    0.84698    0.58682   1.00
C5       0.80497    0.65047    0.93976   1.00
H2       0.80211    0.62644    0.88031   1.00
H2       0.84937    0.61876    0.90594   1.00
H2       0.93602    0.60469    0.63882   1.00
H2       0.97761    0.57024    0.64452   1.00
C5       0.92417    0.55374    0.67602   1.00
H2       1.20116    0.94271    0.80450   1.00
H2       1.16571    0.97099    0.83437   1.00
H2       1.21374    0.95685    0.85540   1.00
H2       1.01820    0.79401    0.52640   1.00
H2       1.02229    0.84478    0.50757   1.00
H2       1.06621    0.81939    0.52698   1.00
H2       0.78889    0.67943    0.93687   1.00
H2       0.78336    0.62655    0.94794   1.00
H2       0.82819    0.65299    0.96343   1.00
H2       0.89307    0.56552    0.67558   1.00
H2       0.92598    0.52653    0.65699   1.00
H2       0.93266    0.54602    0.70723   1.00
C5       0.67285    0.36782    0.85061   1.00
H2       0.65760    0.35255    0.82645   1.00
H2       0.65150    0.38910    0.86252   1.00
C5       0.68456    0.33806    0.88216   1.00
C5       0.64978    0.32877    0.90903   1.00
H2       0.70895    0.34985    0.90008   1.00
O3       0.79801    0.52000    0.80206   1.00
C4       0.74992    0.47900    0.74959   1.00
C3c      0.72379    0.45757    0.77276   1.00
H1       0.70303    0.47275    0.79102   1.00
C3d      0.77636    0.45865    0.72558   1.00
C3       0.72433    0.41646    0.77323   1.00
O2       0.69487    0.39752    0.79287   1.00
C3       0.77748    0.41773    0.72654   1.00
H1       0.79919    0.40343    0.70867   1.00
C2       0.75155    0.39561    0.75012   1.00
C5       0.83736    0.52121    0.78991   1.00
H2       0.84879    0.55162    0.78824   1.00
H2       0.84104    0.50734    0.76068   1.00
C5       0.86140    0.49871    0.81982   1.00
H2       0.84929    0.46863    0.82230   1.00
H2       0.85781    0.51302    0.84881   1.00
C5       0.90473    0.49738    0.80802   1.00
H2       0.91694    0.52732    0.80523   1.00
H2       0.90849    0.48189    0.77973   1.00
C5       0.92851    0.47555    0.83927   1.00
C5       0.78936    0.48895    0.66776   1.00
C5       0.70681    0.38930    0.83150   1.00
H2       0.76413    0.50912    0.67088   1.00
H2       0.77984    0.46288    0.65074   1.00
H2       0.71305    0.41700    0.84744   1.00
H2       0.73386    0.37105    0.83261   1.00
H2       0.69371    0.30970    0.86886   1.00
H2       0.78765    0.55753    0.61871   1.00
H2       0.78799    0.51237    0.59088   1.00
C2       0.75267    0.60395    0.75023   1.00
C3       0.72680    0.58403    0.72511   1.00
O2       0.70959    0.60326    0.69421   1.00
C3       0.77588    0.58174    0.77617   1.00
H1       0.79523    0.59615    0.79647   1.00
C3a      0.72544    0.54287    0.72570   1.00
H1       0.70713    0.52798    0.70475   1.00
C3b      0.77536    0.54078    0.77582   1.00
C4       0.75008    0.52100    0.75041   1.00
O3       0.80463    0.47833    0.70449   1.00
C5       0.67059    0.61280    0.70331   1.00
H2       0.65310    0.58609    0.70986   1.00
C5       0.65352    0.63326    0.66769   1.00
H2       0.66916    0.63274    0.72897   1.00
H2       0.64530    0.61068    0.64581   1.00
H2       0.67729    0.65093    0.65429   1.00
C5       0.61820    0.65918    0.67762   1.00
H2       0.59609    0.64176    0.69371   1.00
C5       0.59937    0.67547    0.64023   1.00
H2       0.62702    0.68493    0.69562   1.00
C5       0.82164    0.50983    0.64537   1.00
H2       0.84385    0.48785    0.63641   1.00
H2       0.83641    0.53048    0.66568   1.00
C5       0.80576    0.53200    0.60967   1.00
C5       0.83984    0.54775    0.58501   1.00
H2       0.62955    0.30714    0.89391   1.00
C5       0.66486    0.31088    0.94738   1.00
H2       0.63311    0.35677    0.91567   1.00
C5       0.96956    0.46663    0.82333   1.00
H2       0.93107    0.49449    0.86649   1.00
H2       0.91318    0.44707    0.84698   1.00
C5       0.56024    0.69503    0.65047   1.00
H2       0.61969    0.69789    0.62644   1.00
H2       0.59406    0.65063    0.61876   1.00
H2       0.86118    0.56398    0.60469   1.00
H2       0.85548    0.52239    0.57024   1.00
C5       0.82398    0.57583    0.55374   1.00
H2       0.69550    0.29884    0.94271   1.00
H2       0.66563    0.33429    0.97099   1.00
H2       0.64460    0.28626    0.95685   1.00
H2       0.97360    0.48180    0.79401   1.00
H2       0.99243    0.47771    0.84478   1.00
H2       0.97302    0.43379    0.81939   1.00
H2       0.56313    0.71111    0.67943   1.00
H2       0.55206    0.71664    0.62655   1.00
H2       0.53657    0.67181    0.65299   1.00
H2       0.82442    0.60693    0.56552   1.00
H2       0.84301    0.57402    0.52653   1.00
H2       0.79277    0.56734    0.54602   1.00
C5       0.85061    0.67285    0.36782   1.00
H2       0.82645    0.65760    0.35255   1.00
H2       0.86252    0.65150    0.38910   1.00
C5       0.88216    0.68456    0.33806   1.00
C5       0.90903    0.64978    0.32877   1.00
H2       0.90008    0.70895    0.34985   1.00
O3       0.80206    0.79801    0.52000   1.00
C4       0.74959    0.74992    0.47900   1.00
C3c      0.77276    0.72379    0.45757   1.00
H1       0.79102    0.70303    0.47275   1.00
C3d      0.72558    0.77636    0.45865   1.00
C3       0.77323    0.72433    0.41646   1.00
O2       0.79287    0.69487    0.39752   1.00
C3       0.72654    0.77748    0.41773   1.00
H1       0.70867    0.79919    0.40343   1.00
C2       0.75012    0.75155    0.39561   1.00
C5       0.78991    0.83736    0.52121   1.00
H2       0.78824    0.84879    0.55162   1.00
H2       0.76068    0.84104    0.50734   1.00
C5       0.81982    0.86140    0.49871   1.00
H2       0.82230    0.84929    0.46863   1.00
H2       0.84881    0.85781    0.51302   1.00
C5       0.80802    0.90473    0.49738   1.00
H2       0.80523    0.91694    0.52732   1.00
H2       0.77973    0.90849    0.48189   1.00
C5       0.83927    0.92851    0.47555   1.00
C5       0.66776    0.78936    0.48895   1.00
C5       0.83150    0.70681    0.38930   1.00
H2       0.67088    0.76413    0.50912   1.00
H2       0.65074    0.77984    0.46288   1.00
H2       0.84744    0.71305    0.41700   1.00
H2       0.83261    0.73386    0.37105   1.00
H2       0.86886    0.69371    0.30970   1.00
H2       0.61871    0.78765    0.55753   1.00
H2       0.59088    0.78799    0.51237   1.00
C2       0.75023    0.75267    0.60395   1.00
C3       0.72511    0.72680    0.58403   1.00
O2       0.69421    0.70959    0.60326   1.00
C3       0.77617    0.77588    0.58174   1.00
H1       0.79647    0.79523    0.59615   1.00
C3a      0.72570    0.72544    0.54287   1.00
H1       0.70475    0.70713    0.52798   1.00
C3b      0.77582    0.77536    0.54078   1.00
C4       0.75041    0.75008    0.52100   1.00
O3       0.70449    0.80463    0.47833   1.00
C5       0.70331    0.67059    0.61280   1.00
H2       0.70986    0.65310    0.58609   1.00
C5       0.66769    0.65352    0.63326   1.00
H2       0.72897    0.66916    0.63274   1.00
H2       0.64581    0.64530    0.61068   1.00
H2       0.65429    0.67729    0.65093   1.00
C5       0.67762    0.61820    0.65918   1.00
H2       0.69371    0.59609    0.64176   1.00
C5       0.64023    0.59937    0.67547   1.00
H2       0.69562    0.62702    0.68493   1.00
C5       0.64537    0.82164    0.50983   1.00
H2       0.63641    0.84385    0.48785   1.00
H2       0.66568    0.83641    0.53048   1.00
C5       0.60967    0.80576    0.53200   1.00
C5       0.58501    0.83984    0.54775   1.00
H2       0.89391    0.62955    0.30714   1.00
C5       0.94738    0.66486    0.31088   1.00
H2       0.91567    0.63311    0.35677   1.00
C5       0.82333    0.96956    0.46663   1.00
H2       0.86649    0.93107    0.49449   1.00
H2       0.84698    0.91318    0.44707   1.00
C5       0.65047    0.56024    0.69503   1.00
H2       0.62644    0.61969    0.69789   1.00
H2       0.61876    0.59406    0.65063   1.00
H2       0.60469    0.86118    0.56398   1.00
H2       0.57024    0.85548    0.52239   1.00
C5       0.55374    0.82398    0.57583   1.00
H2       0.94271    0.69550    0.29884   1.00
H2       0.97099    0.66563    0.33429   1.00
H2       0.95685    0.64460    0.28626   1.00
H2       0.79401    0.97360    0.48180   1.00
H2       0.84478    0.99243    0.47771   1.00
H2       0.81939    0.97302    0.43379   1.00
H2       0.67943    0.56313    0.71111   1.00
H2       0.62655    0.55206    0.71664   1.00
H2       0.65299    0.53657    0.67181   1.00
H2       0.56552    0.82442    0.60693   1.00
H2       0.52653    0.84301    0.57402   1.00
H2       0.54602    0.79277    0.56734   1.00
C5       0.35061    0.32715    1.13218   1.00
H2       0.32645    0.34240    1.14745   1.00
H2       0.36252    0.34850    1.11090   1.00
C5       0.38216    0.31544    1.16194   1.00
C5       0.40903    0.35022    1.17123   1.00
H2       0.40008    0.29105    1.15015   1.00
O3       0.30206    0.20199    0.98000   1.00
C4       0.24959    0.25008    1.02100   1.00
C3c      0.27276    0.27621    1.04243   1.00
H1       0.29102    0.29697    1.02725   1.00
C3d      0.22558    0.22364    1.04135   1.00
C3       0.27323    0.27567    1.08354   1.00
O2       0.29287    0.30513    1.10248   1.00
C3       0.22654    0.22252    1.08227   1.00
H1       0.20867    0.20081    1.09657   1.00
C2       0.25012    0.24845    1.10439   1.00
C5       0.28991    0.16264    0.97879   1.00
H2       0.28824    0.15121    0.94838   1.00
H2       0.26068    0.15896    0.99266   1.00
C5       0.31982    0.13860    1.00129   1.00
H2       0.32230    0.15071    1.03137   1.00
H2       0.34881    0.14219    0.98698   1.00
C5       0.30802    0.09527    1.00262   1.00
H2       0.30523    0.08306    0.97268   1.00
H2       0.27973    0.09151    1.01811   1.00
C5       0.33927    0.07149    1.02445   1.00
C5       0.16776    0.21064    1.01105   1.00
C5       0.33150    0.29319    1.11070   1.00
H2       0.17088    0.23587    0.99088   1.00
H2       0.15074    0.22016    1.03712   1.00
H2       0.34744    0.28695    1.08300   1.00
H2       0.33261    0.26614    1.12895   1.00
H2       0.36886    0.30629    1.19030   1.00
H2       0.11871    0.21235    0.94247   1.00
H2       0.09088    0.21201    0.98763   1.00
C2       0.25023    0.24733    0.89605   1.00
C3       0.22511    0.27320    0.91597   1.00
O2       0.19421    0.29041    0.89674   1.00
C3       0.27617    0.22412    0.91826   1.00
H1       0.29647    0.20477    0.90385   1.00
C3a      0.22570    0.27456    0.95713   1.00
H1       0.20475    0.29287    0.97202   1.00
C3b      0.27582    0.22464    0.95922   1.00
C4       0.25041    0.24992    0.97900   1.00
O3       0.20449    0.19537    1.02167   1.00
C5       0.20331    0.32941    0.88720   1.00
H2       0.20986    0.34690    0.91391   1.00
C5       0.16769    0.34648    0.86674   1.00
H2       0.22897    0.33084    0.86726   1.00
H2       0.14581    0.35470    0.88932   1.00
H2       0.15429    0.32271    0.84907   1.00
C5       0.17762    0.38180    0.84082   1.00
H2       0.19371    0.40391    0.85824   1.00
C5       0.14023    0.40063    0.82453   1.00
H2       0.19562    0.37298    0.81507   1.00
C5       0.14537    0.17836    0.99017   1.00
H2       0.13641    0.15615    1.01215   1.00
H2       0.16568    0.16359    0.96952   1.00
C5       0.10967    0.19424    0.96800   1.00
C5       0.08501    0.16016    0.95225   1.00
H2       0.39391    0.37045    1.19286   1.00
C5       0.44738    0.33514    1.18912   1.00
H2       0.41567    0.36689    1.14323   1.00
C5       0.32333    0.03044    1.03337   1.00
H2       0.36649    0.06893    1.00551   1.00
H2       0.34698    0.08682    1.05293   1.00
C5       0.15047    0.43976    0.80497   1.00
H2       0.12644    0.38031    0.80211   1.00
H2       0.11876    0.40594    0.84937   1.00
H2       0.10469    0.13882    0.93602   1.00
H2       0.07024    0.14452    0.97761   1.00
C5       0.05374    0.17602    0.92417   1.00
H2       0.44271    0.30450    1.20116   1.00
H2       0.47099    0.33437    1.16571   1.00
H2       0.45685    0.35540    1.21374   1.00
H2       0.29401    0.02640    1.01820   1.00
H2       0.34478    0.00757    1.02229   1.00
H2       0.31939    0.02698    1.06621   1.00
H2       0.17943    0.43687    0.78889   1.00
H2       0.12655    0.44794    0.78336   1.00
H2       0.15299    0.46343    0.82819   1.00
H2       0.06552    0.17558    0.89307   1.00
H2       0.02653    0.15699    0.92598   1.00
H2       0.04602    0.20723    0.93266   1.00
C5       0.32715    0.63218    0.85061   1.00
H2       0.34240    0.64745    0.82645   1.00
H2       0.34850    0.61090    0.86252   1.00
C5       0.31544    0.66194    0.88216   1.00
C5       0.35022    0.67123    0.90903   1.00
H2       0.29105    0.65015    0.90008   1.00
O3       0.20199    0.48000    0.80206   1.00
C4       0.25008    0.52100    0.74959   1.00
C3c      0.27621    0.54243    0.77276   1.00
H1       0.29697    0.52725    0.79102   1.00
C3d      0.22364    0.54135    0.72558   1.00
C3       0.27567    0.58354    0.77323   1.00
O2       0.30513    0.60248    0.79287   1.00
C3       0.22252    0.58227    0.72654   1.00
H1       0.20081    0.59657    0.70867   1.00
C2       0.24845    0.60439    0.75012   1.00
C5       0.16264    0.47879    0.78991   1.00
H2       0.15121    0.44838    0.78824   1.00
H2       0.15896    0.49266    0.76068   1.00
C5       0.13860    0.50129    0.81982   1.00
H2       0.15071    0.53137    0.82230   1.00
H2       0.14219    0.48698    0.84881   1.00
C5       0.09527    0.50262    0.80802   1.00
H2       0.08306    0.47268    0.80523   1.00
H2       0.09151    0.51811    0.77973   1.00
C5       0.07149    0.52445    0.83927   1.00
C5       0.21064    0.51105    0.66776   1.00
C5       0.29319    0.61070    0.83150   1.00
H2       0.23587    0.49088    0.67088   1.00
H2       0.22016    0.53712    0.65074   1.00
H2       0.28695    0.58300    0.84744   1.00
H2       0.26614    0.62895    0.83261   1.00
H2       0.30629    0.69030    0.86886   1.00
H2       0.21235    0.44247    0.61871   1.00
H2       0.21201    0.48763    0.59088   1.00
C2       0.24733    0.39605    0.75023   1.00
C3       0.27320    0.41597    0.72511   1.00
O2       0.29041    0.39674    0.69421   1.00
C3       0.22412    0.41826    0.77617   1.00
H1       0.20477    0.40385    0.79647   1.00
C3a      0.27456    0.45713    0.72570   1.00
H1       0.29287    0.47202    0.70475   1.00
C3b      0.22464    0.45922    0.77582   1.00
C4       0.24992    0.47900    0.75041   1.00
O3       0.19537    0.52167    0.70449   1.00
C5       0.32941    0.38720    0.70331   1.00
H2       0.34690    0.41391    0.70986   1.00
C5       0.34648    0.36674    0.66769   1.00
H2       0.33084    0.36726    0.72897   1.00
H2       0.35470    0.38932    0.64581   1.00
H2       0.32271    0.34907    0.65429   1.00
C5       0.38180    0.34082    0.67762   1.00
H2       0.40391    0.35824    0.69371   1.00
C5       0.40063    0.32453    0.64023   1.00
H2       0.37298    0.31507    0.69562   1.00
C5       0.17836    0.49017    0.64537   1.00
H2       0.15615    0.51215    0.63641   1.00
H2       0.16359    0.46952    0.66568   1.00
C5       0.19424    0.46800    0.60967   1.00
C5       0.16016    0.45225    0.58501   1.00
H2       0.37045    0.69286    0.89391   1.00
C5       0.33514    0.68912    0.94738   1.00
H2       0.36689    0.64323    0.91567   1.00
C5       0.03044    0.53337    0.82333   1.00
H2       0.06893    0.50551    0.86649   1.00
H2       0.08682    0.55293    0.84698   1.00
C5       0.43976    0.30497    0.65047   1.00
H2       0.38031    0.30211    0.62644   1.00
H2       0.40594    0.34937    0.61876   1.00
H2       0.13882    0.43602    0.60469   1.00
H2       0.14452    0.47761    0.57024   1.00
C5       0.17602    0.42417    0.55374   1.00
H2       0.30450    0.70116    0.94271   1.00
H2       0.33437    0.66571    0.97099   1.00
H2       0.35540    0.71374    0.95685   1.00
H2       0.02640    0.51820    0.79401   1.00
H2       0.00757    0.52229    0.84478   1.00
H2       0.02698    0.56621    0.81939   1.00
H2       0.43687    0.28889    0.67943   1.00
H2       0.44794    0.28336    0.62655   1.00
H2       0.46343    0.32819    0.65299   1.00
H2       0.17558    0.39307    0.56552   1.00
H2       0.15699    0.42598    0.52653   1.00
H2       0.20723    0.43266    0.54602   1.00
C5       -0.13218   0.35061    0.67285   1.00
H2       -0.14745   0.32645    0.65760   1.00
H2       -0.11090   0.36252    0.65150   1.00
C5       -0.16194   0.38216    0.68456   1.00
C5       -0.17123   0.40903    0.64978   1.00
H2       -0.15015   0.40008    0.70895   1.00
O3       0.02000    0.30206    0.79801   1.00
C4       -0.02100   0.24959    0.74992   1.00
C3c      -0.04243   0.27276    0.72379   1.00
H1       -0.02725   0.29102    0.70303   1.00
C3d      -0.04135   0.22558    0.77636   1.00
C3       -0.08354   0.27323    0.72433   1.00
O2       -0.10248   0.29287    0.69487   1.00
C3       -0.08227   0.22654    0.77748   1.00
H1       -0.09657   0.20867    0.79919   1.00
C2       -0.10439   0.25012    0.75155   1.00
C5       0.02121    0.28991    0.83736   1.00
H2       0.05162    0.28824    0.84879   1.00
H2       0.00734    0.26068    0.84104   1.00
C5       -0.00129   0.31982    0.86140   1.00
H2       -0.03137   0.32230    0.84929   1.00
H2       0.01302    0.34881    0.85781   1.00
C5       -0.00262   0.30802    0.90473   1.00
H2       0.02732    0.30523    0.91694   1.00
H2       -0.01811   0.27973    0.90849   1.00
C5       -0.02445   0.33927    0.92851   1.00
C5       -0.01105   0.16776    0.78936   1.00
C5       -0.11070   0.33150    0.70681   1.00
H2       0.00912    0.17088    0.76413   1.00
H2       -0.03712   0.15074    0.77984   1.00
H2       -0.08300   0.34744    0.71305   1.00
H2       -0.12895   0.33261    0.73386   1.00
H2       -0.19030   0.36886    0.69371   1.00
H2       0.05753    0.11871    0.78765   1.00
H2       0.01237    0.09088    0.78799   1.00
C2       0.10395    0.25023    0.75267   1.00
C3       0.08403    0.22511    0.72680   1.00
O2       0.10326    0.19421    0.70959   1.00
C3       0.08174    0.27617    0.77588   1.00
H1       0.09615    0.29647    0.79523   1.00
C3a      0.04287    0.22570    0.72544   1.00
H1       0.02798    0.20475    0.70713   1.00
C3b      0.04078    0.27582    0.77536   1.00
C4       0.02100    0.25041    0.75008   1.00
O3       -0.02167   0.20449    0.80463   1.00
C5       0.11280    0.20331    0.67059   1.00
H2       0.08609    0.20986    0.65310   1.00
C5       0.13326    0.16769    0.65352   1.00
H2       0.13274    0.22897    0.66916   1.00
H2       0.11068    0.14581    0.64530   1.00
H2       0.15093    0.15429    0.67729   1.00
C5       0.15918    0.17762    0.61820   1.00
H2       0.14176    0.19371    0.59609   1.00
C5       0.17547    0.14023    0.59937   1.00
H2       0.18493    0.19562    0.62702   1.00
C5       0.00983    0.14537    0.82164   1.00
H2       -0.01215   0.13641    0.84385   1.00
H2       0.03048    0.16568    0.83641   1.00
C5       0.03200    0.10967    0.80576   1.00
C5       0.04775    0.08501    0.83984   1.00
H2       -0.19286   0.39391    0.62955   1.00
C5       -0.18912   0.44738    0.66486   1.00
H2       -0.14323   0.41567    0.63311   1.00
C5       -0.03337   0.32333    0.96956   1.00
H2       -0.00551   0.36649    0.93107   1.00
H2       -0.05293   0.34698    0.91318   1.00
C5       0.19503    0.15047    0.56024   1.00
H2       0.19789    0.12644    0.61969   1.00
H2       0.15063    0.11876    0.59406   1.00
H2       0.06398    0.10469    0.86118   1.00
H2       0.02239    0.07024    0.85548   1.00
C5       0.07583    0.05374    0.82398   1.00
H2       -0.20116   0.44271    0.69550   1.00
H2       -0.16571   0.47099    0.66563   1.00
H2       -0.21374   0.45685    0.64460   1.00
H2       -0.01820   0.29401    0.97360   1.00
H2       -0.02229   0.34478    0.99243   1.00
H2       -0.06621   0.31939    0.97302   1.00
H2       0.21111    0.17943    0.56313   1.00
H2       0.21664    0.12655    0.55206   1.00
H2       0.17181    0.15299    0.53657   1.00
H2       0.10693    0.06552    0.82442   1.00
H2       0.07402    0.02653    0.84301   1.00
H2       0.06734    0.04602    0.79277   1.00
C5       0.63218    0.35061    0.82715   1.00
H2       0.64745    0.32645    0.84240   1.00
H2       0.61090    0.36252    0.84850   1.00
C5       0.66194    0.38216    0.81544   1.00
C5       0.67123    0.40903    0.85022   1.00
H2       0.65015    0.40008    0.79105   1.00
O3       0.48000    0.30206    0.70199   1.00
C4       0.52100    0.24959    0.75008   1.00
C3c      0.54243    0.27276    0.77621   1.00
H1       0.52725    0.29102    0.79697   1.00
C3d      0.54135    0.22558    0.72364   1.00
C3       0.58354    0.27323    0.77567   1.00
O2       0.60248    0.29287    0.80513   1.00
C3       0.58227    0.22654    0.72252   1.00
H1       0.59657    0.20867    0.70081   1.00
C2       0.60439    0.25012    0.74845   1.00
C5       0.47879    0.28991    0.66264   1.00
H2       0.44838    0.28824    0.65121   1.00
H2       0.49266    0.26068    0.65896   1.00
C5       0.50129    0.31982    0.63860   1.00
H2       0.53137    0.32230    0.65071   1.00
H2       0.48698    0.34881    0.64219   1.00
C5       0.50262    0.30802    0.59527   1.00
H2       0.47268    0.30523    0.58306   1.00
H2       0.51811    0.27973    0.59151   1.00
C5       0.52445    0.33927    0.57149   1.00
C5       0.51105    0.16776    0.71064   1.00
C5       0.61070    0.33150    0.79319   1.00
H2       0.49088    0.17088    0.73587   1.00
H2       0.53712    0.15074    0.72016   1.00
H2       0.58300    0.34744    0.78695   1.00
H2       0.62895    0.33261    0.76614   1.00
H2       0.69030    0.36886    0.80629   1.00
H2       0.44247    0.11871    0.71235   1.00
H2       0.48763    0.09088    0.71201   1.00
C2       0.39605    0.25023    0.74733   1.00
C3       0.41597    0.22511    0.77320   1.00
O2       0.39674    0.19421    0.79041   1.00
C3       0.41826    0.27617    0.72412   1.00
H1       0.40385    0.29647    0.70477   1.00
C3a      0.45713    0.22570    0.77456   1.00
H1       0.47202    0.20475    0.79287   1.00
C3b      0.45922    0.27582    0.72464   1.00
C4       0.47900    0.25041    0.74992   1.00
O3       0.52167    0.20449    0.69537   1.00
C5       0.38720    0.20331    0.82941   1.00
H2       0.41391    0.20986    0.84690   1.00
C5       0.36674    0.16769    0.84648   1.00
H2       0.36726    0.22897    0.83084   1.00
H2       0.38932    0.14581    0.85470   1.00
H2       0.34907    0.15429    0.82271   1.00
C5       0.34082    0.17762    0.88180   1.00
H2       0.35824    0.19371    0.90391   1.00
C5       0.32453    0.14023    0.90063   1.00
H2       0.31507    0.19562    0.87298   1.00
C5       0.49017    0.14537    0.67836   1.00
H2       0.51215    0.13641    0.65615   1.00
H2       0.46952    0.16568    0.66359   1.00
C5       0.46800    0.10967    0.69424   1.00
C5       0.45225    0.08501    0.66016   1.00
H2       0.69286    0.39391    0.87045   1.00
C5       0.68912    0.44738    0.83514   1.00
H2       0.64323    0.41567    0.86689   1.00
C5       0.53337    0.32333    0.53044   1.00
H2       0.50551    0.36649    0.56893   1.00
H2       0.55293    0.34698    0.58682   1.00
C5       0.30497    0.15047    0.93976   1.00
H2       0.30211    0.12644    0.88031   1.00
H2       0.34937    0.11876    0.90594   1.00
H2       0.43602    0.10469    0.63882   1.00
H2       0.47761    0.07024    0.64452   1.00
C5       0.42417    0.05374    0.67602   1.00
H2       0.70116    0.44271    0.80450   1.00
H2       0.66571    0.47099    0.83437   1.00
H2       0.71374    0.45685    0.85540   1.00
H2       0.51820    0.29401    0.52640   1.00
H2       0.52229    0.34478    0.50757   1.00
H2       0.56621    0.31939    0.52698   1.00
H2       0.28889    0.17943    0.93687   1.00
H2       0.28336    0.12655    0.94794   1.00
H2       0.32819    0.15299    0.96343   1.00
H2       0.39307    0.06552    0.67558   1.00
H2       0.42598    0.02653    0.65699   1.00
H2       0.43266    0.04602    0.70723   1.00
C5       0.17285    -0.13218   0.85061   1.00
H2       0.15760    -0.14745   0.82645   1.00
H2       0.15150    -0.11090   0.86252   1.00
C5       0.18456    -0.16194   0.88216   1.00
C5       0.14978    -0.17123   0.90903   1.00
H2       0.20895    -0.15015   0.90008   1.00
O3       0.29801    0.02000    0.80206   1.00
C4       0.24992    -0.02100   0.74959   1.00
C3c      0.22379    -0.04243   0.77276   1.00
H1       0.20303    -0.02725   0.79102   1.00
C3d      0.27636    -0.04135   0.72558   1.00
C3       0.22433    -0.08354   0.77323   1.00
O2       0.19487    -0.10248   0.79287   1.00
C3       0.27748    -0.08227   0.72654   1.00
H1       0.29919    -0.09657   0.70867   1.00
C2       0.25155    -0.10439   0.75012   1.00
C5       0.33736    0.02121    0.78991   1.00
H2       0.34879    0.05162    0.78824   1.00
H2       0.34104    0.00734    0.76068   1.00
C5       0.36140    -0.00129   0.81982   1.00
H2       0.34929    -0.03137   0.82230   1.00
H2       0.35781    0.01302    0.84881   1.00
C5       0.40473    -0.00262   0.80802   1.00
H2       0.41694    0.02732    0.80523   1.00
H2       0.40849    -0.01811   0.77973   1.00
C5       0.42851    -0.02445   0.83927   1.00
C5       0.28936    -0.01105   0.66776   1.00
C5       0.20681    -0.11070   0.83150   1.00
H2       0.26413    0.00912    0.67088   1.00
H2       0.27984    -0.03712   0.65074   1.00
H2       0.21305    -0.08300   0.84744   1.00
H2       0.23386    -0.12895   0.83261   1.00
H2       0.19371    -0.19030   0.86886   1.00
H2       0.28765    0.05753    0.61871   1.00
H2       0.28799    0.01237    0.59088   1.00
C2       0.25267    0.10395    0.75023   1.00
C3       0.22680    0.08403    0.72511   1.00
O2       0.20959    0.10326    0.69421   1.00
C3       0.27588    0.08174    0.77617   1.00
H1       0.29523    0.09615    0.79647   1.00
C3a      0.22544    0.04287    0.72570   1.00
H1       0.20713    0.02798    0.70475   1.00
C3b      0.27536    0.04078    0.77582   1.00
C4       0.25008    0.02100    0.75041   1.00
O3       0.30463    -0.02167   0.70449   1.00
C5       0.17059    0.11280    0.70331   1.00
H2       0.15310    0.08609    0.70986   1.00
C5       0.15352    0.13326    0.66769   1.00
H2       0.16916    0.13274    0.72897   1.00
H2       0.14530    0.11068    0.64581   1.00
H2       0.17729    0.15093    0.65429   1.00
C5       0.11820    0.15918    0.67762   1.00
H2       0.09609    0.14176    0.69371   1.00
C5       0.09937    0.17547    0.64023   1.00
H2       0.12702    0.18493    0.69562   1.00
C5       0.32164    0.00983    0.64537   1.00
H2       0.34385    -0.01215   0.63641   1.00
H2       0.33641    0.03048    0.66568   1.00
C5       0.30576    0.03200    0.60967   1.00
C5       0.33984    0.04775    0.58501   1.00
H2       0.12955    -0.19286   0.89391   1.00
C5       0.16486    -0.18912   0.94738   1.00
H2       0.13311    -0.14323   0.91567   1.00
C5       0.46956    -0.03337   0.82333   1.00
H2       0.43107    -0.00551   0.86649   1.00
H2       0.41318    -0.05293   0.84698   1.00
C5       0.06024    0.19503    0.65047   1.00
H2       0.11969    0.19789    0.62644   1.00
H2       0.09406    0.15063    0.61876   1.00
H2       0.36118    0.06398    0.60469   1.00
H2       0.35548    0.02239    0.57024   1.00
C5       0.32398    0.07583    0.55374   1.00
H2       0.19550    -0.20116   0.94271   1.00
H2       0.16563    -0.16571   0.97099   1.00
H2       0.14460    -0.21374   0.95685   1.00
H2       0.47360    -0.01820   0.79401   1.00
H2       0.49243    -0.02229   0.84478   1.00
H2       0.47302    -0.06621   0.81939   1.00
H2       0.06313    0.21111    0.67943   1.00
H2       0.05206    0.21664    0.62655   1.00
H2       0.03657    0.17181    0.65299   1.00
H2       0.32442    0.10693    0.56552   1.00
H2       0.34301    0.07402    0.52653   1.00
H2       0.29277    0.06734    0.54602   1.00
C5       0.35061    0.17285    0.36782   1.00
H2       0.32645    0.15760    0.35255   1.00
H2       0.36252    0.15150    0.38910   1.00
C5       0.38216    0.18456    0.33806   1.00
C5       0.40903    0.14978    0.32877   1.00
H2       0.40008    0.20895    0.34985   1.00
O3       0.30206    0.29801    0.52000   1.00
C4       0.24959    0.24992    0.47900   1.00
C3c      0.27276    0.22379    0.45757   1.00
H1       0.29102    0.20303    0.47275   1.00
C3d      0.22558    0.27636    0.45865   1.00
C3       0.27323    0.22433    0.41646   1.00
O2       0.29287    0.19487    0.39752   1.00
C3       0.22654    0.27748    0.41773   1.00
H1       0.20867    0.29919    0.40343   1.00
C2       0.25012    0.25155    0.39561   1.00
C5       0.28991    0.33736    0.52121   1.00
H2       0.28824    0.34879    0.55162   1.00
H2       0.26068    0.34104    0.50734   1.00
C5       0.31982    0.36140    0.49871   1.00
H2       0.32230    0.34929    0.46863   1.00
H2       0.34881    0.35781    0.51302   1.00
C5       0.30802    0.40473    0.49738   1.00
H2       0.30523    0.41694    0.52732   1.00
H2       0.27973    0.40849    0.48189   1.00
C5       0.33927    0.42851    0.47555   1.00
C5       0.16776    0.28936    0.48895   1.00
C5       0.33150    0.20681    0.38930   1.00
H2       0.17088    0.26413    0.50912   1.00
H2       0.15074    0.27984    0.46288   1.00
H2       0.34744    0.21305    0.41700   1.00
H2       0.33261    0.23386    0.37105   1.00
H2       0.36886    0.19371    0.30970   1.00
H2       0.11871    0.28765    0.55753   1.00
H2       0.09088    0.28799    0.51237   1.00
C2       0.25023    0.25267    0.60395   1.00
C3       0.22511    0.22680    0.58403   1.00
O2       0.19421    0.20959    0.60326   1.00
C3       0.27617    0.27588    0.58174   1.00
H1       0.29647    0.29523    0.59615   1.00
C3a      0.22570    0.22544    0.54287   1.00
H1       0.20475    0.20713    0.52798   1.00
C3b      0.27582    0.27536    0.54078   1.00
C4       0.25041    0.25008    0.52100   1.00
O3       0.20449    0.30463    0.47833   1.00
C5       0.20331    0.17059    0.61280   1.00
H2       0.20986    0.15310    0.58609   1.00
C5       0.16769    0.15352    0.63326   1.00
H2       0.22897    0.16916    0.63274   1.00
H2       0.14581    0.14530    0.61068   1.00
H2       0.15429    0.17729    0.65093   1.00
C5       0.17762    0.11820    0.65918   1.00
H2       0.19371    0.09609    0.64176   1.00
C5       0.14023    0.09937    0.67547   1.00
H2       0.19562    0.12702    0.68493   1.00
C5       0.14537    0.32164    0.50983   1.00
H2       0.13641    0.34385    0.48785   1.00
H2       0.16568    0.33641    0.53048   1.00
C5       0.10967    0.30576    0.53200   1.00
C5       0.08501    0.33984    0.54775   1.00
H2       0.39391    0.12955    0.30714   1.00
C5       0.44738    0.16486    0.31088   1.00
H2       0.41567    0.13311    0.35677   1.00
C5       0.32333    0.46956    0.46663   1.00
H2       0.36649    0.43107    0.49449   1.00
H2       0.34698    0.41318    0.44707   1.00
C5       0.15047    0.06024    0.69503   1.00
H2       0.12644    0.11969    0.69789   1.00
H2       0.11876    0.09406    0.65063   1.00
H2       0.10469    0.36118    0.56398   1.00
H2       0.07024    0.35548    0.52239   1.00
C5       0.05374    0.32398    0.57583   1.00
H2       0.44271    0.19550    0.29884   1.00
H2       0.47099    0.16563    0.33429   1.00
H2       0.45685    0.14460    0.28626   1.00
H2       0.29401    0.47360    0.48180   1.00
H2       0.34478    0.49243    0.47771   1.00
H2       0.31939    0.47302    0.43379   1.00
H2       0.17943    0.06313    0.71111   1.00
H2       0.12655    0.05206    0.71664   1.00
H2       0.15299    0.03657    0.67181   1.00
H2       0.06552    0.32442    0.60693   1.00
H2       0.02653    0.34301    0.57402   1.00
H2       0.04602    0.29277    0.56734   1.00
C5       0.35061    0.82715    0.63218   1.00
H2       0.32645    0.84240    0.64745   1.00
H2       0.36252    0.84850    0.61090   1.00
C5       0.38216    0.81544    0.66194   1.00
C5       0.40903    0.85022    0.67123   1.00
H2       0.40008    0.79105    0.65015   1.00
O3       0.30206    0.70199    0.48000   1.00
C4       0.24959    0.75008    0.52100   1.00
C3c      0.27276    0.77621    0.54243   1.00
H1       0.29102    0.79697    0.52725   1.00
C3d      0.22558    0.72364    0.54135   1.00
C3       0.27323    0.77567    0.58354   1.00
O2       0.29287    0.80513    0.60248   1.00
C3       0.22654    0.72252    0.58227   1.00
H1       0.20867    0.70081    0.59657   1.00
C2       0.25012    0.74845    0.60439   1.00
C5       0.28991    0.66264    0.47879   1.00
H2       0.28824    0.65121    0.44838   1.00
H2       0.26068    0.65896    0.49266   1.00
C5       0.31982    0.63860    0.50129   1.00
H2       0.32230    0.65071    0.53137   1.00
H2       0.34881    0.64219    0.48698   1.00
C5       0.30802    0.59527    0.50262   1.00
H2       0.30523    0.58306    0.47268   1.00
H2       0.27973    0.59151    0.51811   1.00
C5       0.33927    0.57149    0.52445   1.00
C5       0.16776    0.71064    0.51105   1.00
C5       0.33150    0.79319    0.61070   1.00
H2       0.17088    0.73587    0.49088   1.00
H2       0.15074    0.72016    0.53712   1.00
H2       0.34744    0.78695    0.58300   1.00
H2       0.33261    0.76614    0.62895   1.00
H2       0.36886    0.80629    0.69030   1.00
H2       0.11871    0.71235    0.44247   1.00
H2       0.09088    0.71201    0.48763   1.00
C2       0.25023    0.74733    0.39605   1.00
C3       0.22511    0.77320    0.41597   1.00
O2       0.19421    0.79041    0.39674   1.00
C3       0.27617    0.72412    0.41826   1.00
H1       0.29647    0.70477    0.40385   1.00
C3a      0.22570    0.77456    0.45713   1.00
H1       0.20475    0.79287    0.47202   1.00
C3b      0.27582    0.72464    0.45922   1.00
C4       0.25041    0.74992    0.47900   1.00
O3       0.20449    0.69537    0.52167   1.00
C5       0.20331    0.82941    0.38720   1.00
H2       0.20986    0.84690    0.41391   1.00
C5       0.16769    0.84648    0.36674   1.00
H2       0.22897    0.83084    0.36726   1.00
H2       0.14581    0.85470    0.38932   1.00
H2       0.15429    0.82271    0.34907   1.00
C5       0.17762    0.88180    0.34082   1.00
H2       0.19371    0.90391    0.35824   1.00
C5       0.14023    0.90063    0.32453   1.00
H2       0.19562    0.87298    0.31507   1.00
C5       0.14537    0.67836    0.49017   1.00
H2       0.13641    0.65615    0.51215   1.00
H2       0.16568    0.66359    0.46952   1.00
C5       0.10967    0.69424    0.46800   1.00
C5       0.08501    0.66016    0.45225   1.00
H2       0.39391    0.87045    0.69286   1.00
C5       0.44738    0.83514    0.68912   1.00
H2       0.41567    0.86689    0.64323   1.00
C5       0.32333    0.53044    0.53337   1.00
H2       0.36649    0.56893    0.50551   1.00
H2       0.34698    0.58682    0.55293   1.00
C5       0.15047    0.93976    0.30497   1.00
H2       0.12644    0.88031    0.30211   1.00
H2       0.11876    0.90594    0.34937   1.00
H2       0.10469    0.63882    0.43602   1.00
H2       0.07024    0.64452    0.47761   1.00
C5       0.05374    0.67602    0.42417   1.00
H2       0.44271    0.80450    0.70116   1.00
H2       0.47099    0.83437    0.66571   1.00
H2       0.45685    0.85540    0.71374   1.00
H2       0.29401    0.52640    0.51820   1.00
H2       0.34478    0.50757    0.52229   1.00
H2       0.31939    0.52698    0.56621   1.00
H2       0.17943    0.93687    0.28889   1.00
H2       0.12655    0.94794    0.28336   1.00
H2       0.15299    0.96343    0.32819   1.00
H2       0.06552    0.67558    0.39307   1.00
H2       0.02653    0.65699    0.42598   1.00
H2       0.04602    0.70723    0.43266   1.00
C5       0.32715    1.13218    0.35061   1.00
H2       0.34240    1.14745    0.32645   1.00
H2       0.34850    1.11090    0.36252   1.00
C5       0.31544    1.16194    0.38216   1.00
C5       0.35022    1.17123    0.40903   1.00
H2       0.29105    1.15015    0.40008   1.00
O3       0.20199    0.98000    0.30206   1.00
C4       0.25008    1.02100    0.24959   1.00
C3c      0.27621    1.04243    0.27276   1.00
H1       0.29697    1.02725    0.29102   1.00
C3d      0.22364    1.04135    0.22558   1.00
C3       0.27567    1.08354    0.27323   1.00
O2       0.30513    1.10248    0.29287   1.00
C3       0.22252    1.08227    0.22654   1.00
H1       0.20081    1.09657    0.20867   1.00
C2       0.24845    1.10439    0.25012   1.00
C5       0.16264    0.97879    0.28991   1.00
H2       0.15121    0.94838    0.28824   1.00
H2       0.15896    0.99266    0.26068   1.00
C5       0.13860    1.00129    0.31982   1.00
H2       0.15071    1.03137    0.32230   1.00
H2       0.14219    0.98698    0.34881   1.00
C5       0.09527    1.00262    0.30802   1.00
H2       0.08306    0.97268    0.30523   1.00
H2       0.09151    1.01811    0.27973   1.00
C5       0.07149    1.02445    0.33927   1.00
C5       0.21064    1.01105    0.16776   1.00
C5       0.29319    1.11070    0.33150   1.00
H2       0.23587    0.99088    0.17088   1.00
H2       0.22016    1.03712    0.15074   1.00
H2       0.28695    1.08300    0.34744   1.00
H2       0.26614    1.12895    0.33261   1.00
H2       0.30629    1.19030    0.36886   1.00
H2       0.21235    0.94247    0.11871   1.00
H2       0.21201    0.98763    0.09088   1.00
C2       0.24733    0.89605    0.25023   1.00
C3       0.27320    0.91597    0.22511   1.00
O2       0.29041    0.89674    0.19421   1.00
C3       0.22412    0.91826    0.27617   1.00
H1       0.20477    0.90385    0.29647   1.00
C3a      0.27456    0.95713    0.22570   1.00
H1       0.29287    0.97202    0.20475   1.00
C3b      0.22464    0.95922    0.27582   1.00
C4       0.24992    0.97900    0.25041   1.00
O3       0.19537    1.02167    0.20449   1.00
C5       0.32941    0.88720    0.20331   1.00
H2       0.34690    0.91391    0.20986   1.00
C5       0.34648    0.86674    0.16769   1.00
H2       0.33084    0.86726    0.22897   1.00
H2       0.35470    0.88932    0.14581   1.00
H2       0.32271    0.84907    0.15429   1.00
C5       0.38180    0.84082    0.17762   1.00
H2       0.40391    0.85824    0.19371   1.00
C5       0.40063    0.82453    0.14023   1.00
H2       0.37298    0.81507    0.19562   1.00
C5       0.17836    0.99017    0.14537   1.00
H2       0.15615    1.01215    0.13641   1.00
H2       0.16359    0.96952    0.16568   1.00
C5       0.19424    0.96800    0.10967   1.00
C5       0.16016    0.95225    0.08501   1.00
H2       0.37045    1.19286    0.39391   1.00
C5       0.33514    1.18912    0.44738   1.00
H2       0.36689    1.14323    0.41567   1.00
C5       0.03044    1.03337    0.32333   1.00
H2       0.06893    1.00551    0.36649   1.00
H2       0.08682    1.05293    0.34698   1.00
C5       0.43976    0.80497    0.15047   1.00
H2       0.38031    0.80211    0.12644   1.00
H2       0.40594    0.84937    0.11876   1.00
H2       0.13882    0.93602    0.10469   1.00
H2       0.14452    0.97761    0.07024   1.00
C5       0.17602    0.92417    0.05374   1.00
H2       0.30450    1.20116    0.44271   1.00
H2       0.33437    1.16571    0.47099   1.00
H2       0.35540    1.21374    0.45685   1.00
H2       0.02640    1.01820    0.29401   1.00
H2       0.00757    1.02229    0.34478   1.00
H2       0.02698    1.06621    0.31939   1.00
H2       0.43687    0.78889    0.17943   1.00
H2       0.44794    0.78336    0.12655   1.00
H2       0.46343    0.82819    0.15299   1.00
H2       0.17558    0.89307    0.06552   1.00
H2       0.15699    0.92598    0.02653   1.00
H2       0.20723    0.93266    0.04602   1.00
C5       -0.13218   0.85061    0.17285   1.00
H2       -0.14745   0.82645    0.15760   1.00
H2       -0.11090   0.86252    0.15150   1.00
C5       -0.16194   0.88216    0.18456   1.00
C5       -0.17123   0.90903    0.14978   1.00
H2       -0.15015   0.90008    0.20895   1.00
O3       0.02000    0.80206    0.29801   1.00
C4       -0.02100   0.74959    0.24992   1.00
C3c      -0.04243   0.77276    0.22379   1.00
H1       -0.02725   0.79102    0.20303   1.00
C3d      -0.04135   0.72558    0.27636   1.00
C3       -0.08354   0.77323    0.22433   1.00
O2       -0.10248   0.79287    0.19487   1.00
C3       -0.08227   0.72654    0.27748   1.00
H1       -0.09657   0.70867    0.29919   1.00
C2       -0.10439   0.75012    0.25155   1.00
C5       0.02121    0.78991    0.33736   1.00
H2       0.05162    0.78824    0.34879   1.00
H2       0.00734    0.76068    0.34104   1.00
C5       -0.00129   0.81982    0.36140   1.00
H2       -0.03137   0.82230    0.34929   1.00
H2       0.01302    0.84881    0.35781   1.00
C5       -0.00262   0.80802    0.40473   1.00
H2       0.02732    0.80523    0.41694   1.00
H2       -0.01811   0.77973    0.40849   1.00
C5       -0.02445   0.83927    0.42851   1.00
C5       -0.01105   0.66776    0.28936   1.00
C5       -0.11070   0.83150    0.20681   1.00
H2       0.00912    0.67088    0.26413   1.00
H2       -0.03712   0.65074    0.27984   1.00
H2       -0.08300   0.84744    0.21305   1.00
H2       -0.12895   0.83261    0.23386   1.00
H2       -0.19030   0.86886    0.19371   1.00
H2       0.05753    0.61871    0.28765   1.00
H2       0.01237    0.59088    0.28799   1.00
C2       0.10395    0.75023    0.25267   1.00
C3       0.08403    0.72511    0.22680   1.00
O2       0.10326    0.69421    0.20959   1.00
C3       0.08174    0.77617    0.27588   1.00
H1       0.09615    0.79647    0.29523   1.00
C3a      0.04287    0.72570    0.22544   1.00
H1       0.02798    0.70475    0.20713   1.00
C3b      0.04078    0.77582    0.27536   1.00
C4       0.02100    0.75041    0.25008   1.00
O3       -0.02167   0.70449    0.30463   1.00
C5       0.11280    0.70331    0.17059   1.00
H2       0.08609    0.70986    0.15310   1.00
C5       0.13326    0.66769    0.15352   1.00
H2       0.13274    0.72897    0.16916   1.00
H2       0.11068    0.64581    0.14530   1.00
H2       0.15093    0.65429    0.17729   1.00
C5       0.15918    0.67762    0.11820   1.00
H2       0.14176    0.69371    0.09609   1.00
C5       0.17547    0.64023    0.09937   1.00
H2       0.18493    0.69562    0.12702   1.00
C5       0.00983    0.64537    0.32164   1.00
H2       -0.01215   0.63641    0.34385   1.00
H2       0.03048    0.66568    0.33641   1.00
C5       0.03200    0.60967    0.30576   1.00
C5       0.04775    0.58501    0.33984   1.00
H2       -0.19286   0.89391    0.12955   1.00
C5       -0.18912   0.94738    0.16486   1.00
H2       -0.14323   0.91567    0.13311   1.00
C5       -0.03337   0.82333    0.46956   1.00
H2       -0.00551   0.86649    0.43107   1.00
H2       -0.05293   0.84698    0.41318   1.00
C5       0.19503    0.65047    0.06024   1.00
H2       0.19789    0.62644    0.11969   1.00
H2       0.15063    0.61876    0.09406   1.00
H2       0.06398    0.60469    0.36118   1.00
H2       0.02239    0.57024    0.35548   1.00
C5       0.07583    0.55374    0.32398   1.00
H2       -0.20116   0.94271    0.19550   1.00
H2       -0.16571   0.97099    0.16563   1.00
H2       -0.21374   0.95685    0.14460   1.00
H2       -0.01820   0.79401    0.47360   1.00
H2       -0.02229   0.84478    0.49243   1.00
H2       -0.06621   0.81939    0.47302   1.00
H2       0.21111    0.67943    0.06313   1.00
H2       0.21664    0.62655    0.05206   1.00
H2       0.17181    0.65299    0.03657   1.00
H2       0.10693    0.56552    0.32442   1.00
H2       0.07402    0.52653    0.34301   1.00
H2       0.06734    0.54602    0.29277   1.00
C5       0.63218    0.85061    0.32715   1.00
H2       0.64745    0.82645    0.34240   1.00
H2       0.61090    0.86252    0.34850   1.00
C5       0.66194    0.88216    0.31544   1.00
C5       0.67123    0.90903    0.35022   1.00
H2       0.65015    0.90008    0.29105   1.00
O3       0.48000    0.80206    0.20199   1.00
C4       0.52100    0.74959    0.25008   1.00
C3c      0.54243    0.77276    0.27621   1.00
H1       0.52725    0.79102    0.29697   1.00
C3d      0.54135    0.72558    0.22364   1.00
C3       0.58354    0.77323    0.27567   1.00
O2       0.60248    0.79287    0.30513   1.00
C3       0.58227    0.72654    0.22252   1.00
H1       0.59657    0.70867    0.20081   1.00
C2       0.60439    0.75012    0.24845   1.00
C5       0.47879    0.78991    0.16264   1.00
H2       0.44838    0.78824    0.15121   1.00
H2       0.49266    0.76068    0.15896   1.00
C5       0.50129    0.81982    0.13860   1.00
H2       0.53137    0.82230    0.15071   1.00
H2       0.48698    0.84881    0.14219   1.00
C5       0.50262    0.80802    0.09527   1.00
H2       0.47268    0.80523    0.08306   1.00
H2       0.51811    0.77973    0.09151   1.00
C5       0.52445    0.83927    0.07149   1.00
C5       0.51105    0.66776    0.21064   1.00
C5       0.61070    0.83150    0.29319   1.00
H2       0.49088    0.67088    0.23587   1.00
H2       0.53712    0.65074    0.22016   1.00
H2       0.58300    0.84744    0.28695   1.00
H2       0.62895    0.83261    0.26614   1.00
H2       0.69030    0.86886    0.30629   1.00
H2       0.44247    0.61871    0.21235   1.00
H2       0.48763    0.59088    0.21201   1.00
C2       0.39605    0.75023    0.24733   1.00
C3       0.41597    0.72511    0.27320   1.00
O2       0.39674    0.69421    0.29041   1.00
C3       0.41826    0.77617    0.22412   1.00
H1       0.40385    0.79647    0.20477   1.00
C3a      0.45713    0.72570    0.27456   1.00
H1       0.47202    0.70475    0.29287   1.00
C3b      0.45922    0.77582    0.22464   1.00
C4       0.47900    0.75041    0.24992   1.00
O3       0.52167    0.70449    0.19537   1.00
C5       0.38720    0.70331    0.32941   1.00
H2       0.41391    0.70986    0.34690   1.00
C5       0.36674    0.66769    0.34648   1.00
H2       0.36726    0.72897    0.33084   1.00
H2       0.38932    0.64581    0.35470   1.00
H2       0.34907    0.65429    0.32271   1.00
C5       0.34082    0.67762    0.38180   1.00
H2       0.35824    0.69371    0.40391   1.00
C5       0.32453    0.64023    0.40063   1.00
H2       0.31507    0.69562    0.37298   1.00
C5       0.49017    0.64537    0.17836   1.00
H2       0.51215    0.63641    0.15615   1.00
H2       0.46952    0.66568    0.16359   1.00
C5       0.46800    0.60967    0.19424   1.00
C5       0.45225    0.58501    0.16016   1.00
H2       0.69286    0.89391    0.37045   1.00
C5       0.68912    0.94738    0.33514   1.00
H2       0.64323    0.91567    0.36689   1.00
C5       0.53337    0.82333    0.03044   1.00
H2       0.50551    0.86649    0.06893   1.00
H2       0.55293    0.84698    0.08682   1.00
C5       0.30497    0.65047    0.43976   1.00
H2       0.30211    0.62644    0.38031   1.00
H2       0.34937    0.61876    0.40594   1.00
H2       0.43602    0.60469    0.13882   1.00
H2       0.47761    0.57024    0.14452   1.00
C5       0.42417    0.55374    0.17602   1.00
H2       0.70116    0.94271    0.30450   1.00
H2       0.66571    0.97099    0.33437   1.00
H2       0.71374    0.95685    0.35540   1.00
H2       0.51820    0.79401    0.02640   1.00
H2       0.52229    0.84478    0.00757   1.00
H2       0.56621    0.81939    0.02698   1.00
H2       0.28889    0.67943    0.43687   1.00
H2       0.28336    0.62655    0.44794   1.00
H2       0.32819    0.65299    0.46343   1.00
H2       0.39307    0.56552    0.17558   1.00
H2       0.42598    0.52653    0.15699   1.00
H2       0.43266    0.54602    0.20723   1.00
C5       0.17285    0.36782    0.35061   1.00
H2       0.15760    0.35255    0.32645   1.00
H2       0.15150    0.38910    0.36252   1.00
C5       0.18456    0.33806    0.38216   1.00
C5       0.14978    0.32877    0.40903   1.00
H2       0.20895    0.34985    0.40008   1.00
O3       0.29801    0.52000    0.30206   1.00
C4       0.24992    0.47900    0.24959   1.00
C3c      0.22379    0.45757    0.27276   1.00
H1       0.20303    0.47275    0.29102   1.00
C3d      0.27636    0.45865    0.22558   1.00
C3       0.22433    0.41646    0.27323   1.00
O2       0.19487    0.39752    0.29287   1.00
C3       0.27748    0.41773    0.22654   1.00
H1       0.29919    0.40343    0.20867   1.00
C2       0.25155    0.39561    0.25012   1.00
C5       0.33736    0.52121    0.28991   1.00
H2       0.34879    0.55162    0.28824   1.00
H2       0.34104    0.50734    0.26068   1.00
C5       0.36140    0.49871    0.31982   1.00
H2       0.34929    0.46863    0.32230   1.00
H2       0.35781    0.51302    0.34881   1.00
C5       0.40473    0.49738    0.30802   1.00
H2       0.41694    0.52732    0.30523   1.00
H2       0.40849    0.48189    0.27973   1.00
C5       0.42851    0.47555    0.33927   1.00
C5       0.28936    0.48895    0.16776   1.00
C5       0.20681    0.38930    0.33150   1.00
H2       0.26413    0.50912    0.17088   1.00
H2       0.27984    0.46288    0.15074   1.00
H2       0.21305    0.41700    0.34744   1.00
H2       0.23386    0.37105    0.33261   1.00
H2       0.19371    0.30970    0.36886   1.00
H2       0.28765    0.55753    0.11871   1.00
H2       0.28799    0.51237    0.09088   1.00
C2       0.25267    0.60395    0.25023   1.00
C3       0.22680    0.58403    0.22511   1.00
O2       0.20959    0.60326    0.19421   1.00
C3       0.27588    0.58174    0.27617   1.00
H1       0.29523    0.59615    0.29647   1.00
C3a      0.22544    0.54287    0.22570   1.00
H1       0.20713    0.52798    0.20475   1.00
C3b      0.27536    0.54078    0.27582   1.00
C4       0.25008    0.52100    0.25041   1.00
O3       0.30463    0.47833    0.20449   1.00
C5       0.17059    0.61280    0.20331   1.00
H2       0.15310    0.58609    0.20986   1.00
C5       0.15352    0.63326    0.16769   1.00
H2       0.16916    0.63274    0.22897   1.00
H2       0.14530    0.61068    0.14581   1.00
H2       0.17729    0.65093    0.15429   1.00
C5       0.11820    0.65918    0.17762   1.00
H2       0.09609    0.64176    0.19371   1.00
C5       0.09937    0.67547    0.14023   1.00
H2       0.12702    0.68493    0.19562   1.00
C5       0.32164    0.50983    0.14537   1.00
H2       0.34385    0.48785    0.13641   1.00
H2       0.33641    0.53048    0.16568   1.00
C5       0.30576    0.53200    0.10967   1.00
C5       0.33984    0.54775    0.08501   1.00
H2       0.12955    0.30714    0.39391   1.00
C5       0.16486    0.31088    0.44738   1.00
H2       0.13311    0.35677    0.41567   1.00
C5       0.46956    0.46663    0.32333   1.00
H2       0.43107    0.49449    0.36649   1.00
H2       0.41318    0.44707    0.34698   1.00
C5       0.06024    0.69503    0.15047   1.00
H2       0.11969    0.69789    0.12644   1.00
H2       0.09406    0.65063    0.11876   1.00
H2       0.36118    0.56398    0.10469   1.00
H2       0.35548    0.52239    0.07024   1.00
C5       0.32398    0.57583    0.05374   1.00
H2       0.19550    0.29884    0.44271   1.00
H2       0.16563    0.33429    0.47099   1.00
H2       0.14460    0.28626    0.45685   1.00
H2       0.47360    0.48180    0.29401   1.00
H2       0.49243    0.47771    0.34478   1.00
H2       0.47302    0.43379    0.31939   1.00
H2       0.06313    0.71111    0.17943   1.00
H2       0.05206    0.71664    0.12655   1.00
H2       0.03657    0.67181    0.15299   1.00
H2       0.32442    0.60693    0.06552   1.00
H2       0.34301    0.57402    0.02653   1.00
H2       0.29277    0.56734    0.04602   1.00
C5       0.35061    0.67285    -0.13218   1.00
H2       0.32645    0.65760    -0.14745   1.00
H2       0.36252    0.65150    -0.11090   1.00
C5       0.38216    0.68456    -0.16194   1.00
C5       0.40903    0.64978    -0.17123   1.00
H2       0.40008    0.70895    -0.15015   1.00
O3       0.30206    0.79801    0.02000   1.00
C4       0.24959    0.74992    -0.02100   1.00
C3c      0.27276    0.72379    -0.04243   1.00
H1       0.29102    0.70303    -0.02725   1.00
C3d      0.22558    0.77636    -0.04135   1.00
C3       0.27323    0.72433    -0.08354   1.00
O2       0.29287    0.69487    -0.10248   1.00
C3       0.22654    0.77748    -0.08227   1.00
H1       0.20867    0.79919    -0.09657   1.00
C2       0.25012    0.75155    -0.10439   1.00
C5       0.28991    0.83736    0.02121   1.00
H2       0.28824    0.84879    0.05162   1.00
H2       0.26068    0.84104    0.00734   1.00
C5       0.31982    0.86140    -0.00129   1.00
H2       0.32230    0.84929    -0.03137   1.00
H2       0.34881    0.85781    0.01302   1.00
C5       0.30802    0.90473    -0.00262   1.00
H2       0.30523    0.91694    0.02732   1.00
H2       0.27973    0.90849    -0.01811   1.00
C5       0.33927    0.92851    -0.02445   1.00
C5       0.16776    0.78936    -0.01105   1.00
C5       0.33150    0.70681    -0.11070   1.00
H2       0.17088    0.76413    0.00912   1.00
H2       0.15074    0.77984    -0.03712   1.00
H2       0.34744    0.71305    -0.08300   1.00
H2       0.33261    0.73386    -0.12895   1.00
H2       0.36886    0.69371    -0.19030   1.00
H2       0.11871    0.78765    0.05753   1.00
H2       0.09088    0.78799    0.01237   1.00
C2       0.25023    0.75267    0.10395   1.00
C3       0.22511    0.72680    0.08403   1.00
O2       0.19421    0.70959    0.10326   1.00
C3       0.27617    0.77588    0.08174   1.00
H1       0.29647    0.79523    0.09615   1.00
C3a      0.22570    0.72544    0.04287   1.00
H1       0.20475    0.70713    0.02798   1.00
C3b      0.27582    0.77536    0.04078   1.00
C4       0.25041    0.75008    0.02100   1.00
O3       0.20449    0.80463    -0.02167   1.00
C5       0.20331    0.67059    0.11280   1.00
H2       0.20986    0.65310    0.08609   1.00
C5       0.16769    0.65352    0.13326   1.00
H2       0.22897    0.66916    0.13274   1.00
H2       0.14581    0.64530    0.11068   1.00
H2       0.15429    0.67729    0.15093   1.00
C5       0.17762    0.61820    0.15918   1.00
H2       0.19371    0.59609    0.14176   1.00
C5       0.14023    0.59937    0.17547   1.00
H2       0.19562    0.62702    0.18493   1.00
C5       0.14537    0.82164    0.00983   1.00
H2       0.13641    0.84385    -0.01215   1.00
H2       0.16568    0.83641    0.03048   1.00
C5       0.10967    0.80576    0.03200   1.00
C5       0.08501    0.83984    0.04775   1.00
H2       0.39391    0.62955    -0.19286   1.00
C5       0.44738    0.66486    -0.18912   1.00
H2       0.41567    0.63311    -0.14323   1.00
C5       0.32333    0.96956    -0.03337   1.00
H2       0.36649    0.93107    -0.00551   1.00
H2       0.34698    0.91318    -0.05293   1.00
C5       0.15047    0.56024    0.19503   1.00
H2       0.12644    0.61969    0.19789   1.00
H2       0.11876    0.59406    0.15063   1.00
H2       0.10469    0.86118    0.06398   1.00
H2       0.07024    0.85548    0.02239   1.00
C5       0.05374    0.82398    0.07583   1.00
H2       0.44271    0.69550    -0.20116   1.00
H2       0.47099    0.66563    -0.16571   1.00
H2       0.45685    0.64460    -0.21374   1.00
H2       0.29401    0.97360    -0.01820   1.00
H2       0.34478    0.99243    -0.02229   1.00
H2       0.31939    0.97302    -0.06621   1.00
H2       0.17943    0.56313    0.21111   1.00
H2       0.12655    0.55206    0.21664   1.00
H2       0.15299    0.53657    0.17181   1.00
H2       0.06552    0.82442    0.10693   1.00
H2       0.02653    0.84301    0.07402   1.00
H2       0.04602    0.79277    0.06734   1.00
C5       0.85061    0.32715    0.63218   1.00
H2       0.82645    0.34240    0.64745   1.00
H2       0.86252    0.34850    0.61090   1.00
C5       0.88216    0.31544    0.66194   1.00
C5       0.90903    0.35022    0.67123   1.00
H2       0.90008    0.29105    0.65015   1.00
O3       0.80206    0.20199    0.48000   1.00
C4       0.74959    0.25008    0.52100   1.00
C3c      0.77276    0.27621    0.54243   1.00
H1       0.79102    0.29697    0.52725   1.00
C3d      0.72558    0.22364    0.54135   1.00
C3       0.77323    0.27567    0.58354   1.00
O2       0.79287    0.30513    0.60248   1.00
C3       0.72654    0.22252    0.58227   1.00
H1       0.70867    0.20081    0.59657   1.00
C2       0.75012    0.24845    0.60439   1.00
C5       0.78991    0.16264    0.47879   1.00
H2       0.78824    0.15121    0.44838   1.00
H2       0.76068    0.15896    0.49266   1.00
C5       0.81982    0.13860    0.50129   1.00
H2       0.82230    0.15071    0.53137   1.00
H2       0.84881    0.14219    0.48698   1.00
C5       0.80802    0.09527    0.50262   1.00
H2       0.80523    0.08306    0.47268   1.00
H2       0.77973    0.09151    0.51811   1.00
C5       0.83927    0.07149    0.52445   1.00
C5       0.66776    0.21064    0.51105   1.00
C5       0.83150    0.29319    0.61070   1.00
H2       0.67088    0.23587    0.49088   1.00
H2       0.65074    0.22016    0.53712   1.00
H2       0.84744    0.28695    0.58300   1.00
H2       0.83261    0.26614    0.62895   1.00
H2       0.86886    0.30629    0.69030   1.00
H2       0.61871    0.21235    0.44247   1.00
H2       0.59088    0.21201    0.48763   1.00
C2       0.75023    0.24733    0.39605   1.00
C3       0.72511    0.27320    0.41597   1.00
O2       0.69421    0.29041    0.39674   1.00
C3       0.77617    0.22412    0.41826   1.00
H1       0.79647    0.20477    0.40385   1.00
C3a      0.72570    0.27456    0.45713   1.00
H1       0.70475    0.29287    0.47202   1.00
C3b      0.77582    0.22464    0.45922   1.00
C4       0.75041    0.24992    0.47900   1.00
O3       0.70449    0.19537    0.52167   1.00
C5       0.70331    0.32941    0.38720   1.00
H2       0.70986    0.34690    0.41391   1.00
C5       0.66769    0.34648    0.36674   1.00
H2       0.72897    0.33084    0.36726   1.00
H2       0.64581    0.35470    0.38932   1.00
H2       0.65429    0.32271    0.34907   1.00
C5       0.67762    0.38180    0.34082   1.00
H2       0.69371    0.40391    0.35824   1.00
C5       0.64023    0.40063    0.32453   1.00
H2       0.69562    0.37298    0.31507   1.00
C5       0.64537    0.17836    0.49017   1.00
H2       0.63641    0.15615    0.51215   1.00
H2       0.66568    0.16359    0.46952   1.00
C5       0.60967    0.19424    0.46800   1.00
C5       0.58501    0.16016    0.45225   1.00
H2       0.89391    0.37045    0.69286   1.00
C5       0.94738    0.33514    0.68912   1.00
H2       0.91567    0.36689    0.64323   1.00
C5       0.82333    0.03044    0.53337   1.00
H2       0.86649    0.06893    0.50551   1.00
H2       0.84698    0.08682    0.55293   1.00
C5       0.65047    0.43976    0.30497   1.00
H2       0.62644    0.38031    0.30211   1.00
H2       0.61876    0.40594    0.34937   1.00
H2       0.60469    0.13882    0.43602   1.00
H2       0.57024    0.14452    0.47761   1.00
C5       0.55374    0.17602    0.42417   1.00
H2       0.94271    0.30450    0.70116   1.00
H2       0.97099    0.33437    0.66571   1.00
H2       0.95685    0.35540    0.71374   1.00
H2       0.79401    0.02640    0.51820   1.00
H2       0.84478    0.00757    0.52229   1.00
H2       0.81939    0.02698    0.56621   1.00
H2       0.67943    0.43687    0.28889   1.00
H2       0.62655    0.44794    0.28336   1.00
H2       0.65299    0.46343    0.32819   1.00
H2       0.56552    0.17558    0.39307   1.00
H2       0.52653    0.15699    0.42598   1.00
H2       0.54602    0.20723    0.43266   1.00
C5       0.82715    0.63218    0.35061   1.00
H2       0.84240    0.64745    0.32645   1.00
H2       0.84850    0.61090    0.36252   1.00
C5       0.81544    0.66194    0.38216   1.00
C5       0.85022    0.67123    0.40903   1.00
H2       0.79105    0.65015    0.40008   1.00
O3       0.70199    0.48000    0.30206   1.00
C4       0.75008    0.52100    0.24959   1.00
C3c      0.77621    0.54243    0.27276   1.00
H1       0.79697    0.52725    0.29102   1.00
C3d      0.72364    0.54135    0.22558   1.00
C3       0.77567    0.58354    0.27323   1.00
O2       0.80513    0.60248    0.29287   1.00
C3       0.72252    0.58227    0.22654   1.00
H1       0.70081    0.59657    0.20867   1.00
C2       0.74845    0.60439    0.25012   1.00
C5       0.66264    0.47879    0.28991   1.00
H2       0.65121    0.44838    0.28824   1.00
H2       0.65896    0.49266    0.26068   1.00
C5       0.63860    0.50129    0.31982   1.00
H2       0.65071    0.53137    0.32230   1.00
H2       0.64219    0.48698    0.34881   1.00
C5       0.59527    0.50262    0.30802   1.00
H2       0.58306    0.47268    0.30523   1.00
H2       0.59151    0.51811    0.27973   1.00
C5       0.57149    0.52445    0.33927   1.00
C5       0.71064    0.51105    0.16776   1.00
C5       0.79319    0.61070    0.33150   1.00
H2       0.73587    0.49088    0.17088   1.00
H2       0.72016    0.53712    0.15074   1.00
H2       0.78695    0.58300    0.34744   1.00
H2       0.76614    0.62895    0.33261   1.00
H2       0.80629    0.69030    0.36886   1.00
H2       0.71235    0.44247    0.11871   1.00
H2       0.71201    0.48763    0.09088   1.00
C2       0.74733    0.39605    0.25023   1.00
C3       0.77320    0.41597    0.22511   1.00
O2       0.79041    0.39674    0.19421   1.00
C3       0.72412    0.41826    0.27617   1.00
H1       0.70477    0.40385    0.29647   1.00
C3a      0.77456    0.45713    0.22570   1.00
H1       0.79287    0.47202    0.20475   1.00
C3b      0.72464    0.45922    0.27582   1.00
C4       0.74992    0.47900    0.25041   1.00
O3       0.69537    0.52167    0.20449   1.00
C5       0.82941    0.38720    0.20331   1.00
H2       0.84690    0.41391    0.20986   1.00
C5       0.84648    0.36674    0.16769   1.00
H2       0.83084    0.36726    0.22897   1.00
H2       0.85470    0.38932    0.14581   1.00
H2       0.82271    0.34907    0.15429   1.00
C5       0.88180    0.34082    0.17762   1.00
H2       0.90391    0.35824    0.19371   1.00
C5       0.90063    0.32453    0.14023   1.00
H2       0.87298    0.31507    0.19562   1.00
C5       0.67836    0.49017    0.14537   1.00
H2       0.65615    0.51215    0.13641   1.00
H2       0.66359    0.46952    0.16568   1.00
C5       0.69424    0.46800    0.10967   1.00
C5       0.66016    0.45225    0.08501   1.00
H2       0.87045    0.69286    0.39391   1.00
C5       0.83514    0.68912    0.44738   1.00
H2       0.86689    0.64323    0.41567   1.00
C5       0.53044    0.53337    0.32333   1.00
H2       0.56893    0.50551    0.36649   1.00
H2       0.58682    0.55293    0.34698   1.00
C5       0.93976    0.30497    0.15047   1.00
H2       0.88031    0.30211    0.12644   1.00
H2       0.90594    0.34937    0.11876   1.00
H2       0.63882    0.43602    0.10469   1.00
H2       0.64452    0.47761    0.07024   1.00
C5       0.67602    0.42417    0.05374   1.00
H2       0.80450    0.70116    0.44271   1.00
H2       0.83437    0.66571    0.47099   1.00
H2       0.85540    0.71374    0.45685   1.00
H2       0.52640    0.51820    0.29401   1.00
H2       0.50757    0.52229    0.34478   1.00
H2       0.52698    0.56621    0.31939   1.00
H2       0.93687    0.28889    0.17943   1.00
H2       0.94794    0.28336    0.12655   1.00
H2       0.96343    0.32819    0.15299   1.00
H2       0.67558    0.39307    0.06552   1.00
H2       0.65699    0.42598    0.02653   1.00
H2       0.70723    0.43266    0.04602   1.00
C5       0.36782    0.35061    0.17285   1.00
H2       0.35255    0.32645    0.15760   1.00
H2       0.38910    0.36252    0.15150   1.00
C5       0.33806    0.38216    0.18456   1.00
C5       0.32877    0.40903    0.14978   1.00
H2       0.34985    0.40008    0.20895   1.00
O3       0.52000    0.30206    0.29801   1.00
C4       0.47900    0.24959    0.24992   1.00
C3c      0.45757    0.27276    0.22379   1.00
H1       0.47275    0.29102    0.20303   1.00
C3d      0.45865    0.22558    0.27636   1.00
C3       0.41646    0.27323    0.22433   1.00
O2       0.39752    0.29287    0.19487   1.00
C3       0.41773    0.22654    0.27748   1.00
H1       0.40343    0.20867    0.29919   1.00
C2       0.39561    0.25012    0.25155   1.00
C5       0.52121    0.28991    0.33736   1.00
H2       0.55162    0.28824    0.34879   1.00
H2       0.50734    0.26068    0.34104   1.00
C5       0.49871    0.31982    0.36140   1.00
H2       0.46863    0.32230    0.34929   1.00
H2       0.51302    0.34881    0.35781   1.00
C5       0.49738    0.30802    0.40473   1.00
H2       0.52732    0.30523    0.41694   1.00
H2       0.48189    0.27973    0.40849   1.00
C5       0.47555    0.33927    0.42851   1.00
C5       0.48895    0.16776    0.28936   1.00
C5       0.38930    0.33150    0.20681   1.00
H2       0.50912    0.17088    0.26413   1.00
H2       0.46288    0.15074    0.27984   1.00
H2       0.41700    0.34744    0.21305   1.00
H2       0.37105    0.33261    0.23386   1.00
H2       0.30970    0.36886    0.19371   1.00
H2       0.55753    0.11871    0.28765   1.00
H2       0.51237    0.09088    0.28799   1.00
C2       0.60395    0.25023    0.25267   1.00
C3       0.58403    0.22511    0.22680   1.00
O2       0.60326    0.19421    0.20959   1.00
C3       0.58174    0.27617    0.27588   1.00
H1       0.59615    0.29647    0.29523   1.00
C3a      0.54287    0.22570    0.22544   1.00
H1       0.52798    0.20475    0.20713   1.00
C3b      0.54078    0.27582    0.27536   1.00
C4       0.52100    0.25041    0.25008   1.00
O3       0.47833    0.20449    0.30463   1.00
C5       0.61280    0.20331    0.17059   1.00
H2       0.58609    0.20986    0.15310   1.00
C5       0.63326    0.16769    0.15352   1.00
H2       0.63274    0.22897    0.16916   1.00
H2       0.61068    0.14581    0.14530   1.00
H2       0.65093    0.15429    0.17729   1.00
C5       0.65918    0.17762    0.11820   1.00
H2       0.64176    0.19371    0.09609   1.00
C5       0.67547    0.14023    0.09937   1.00
H2       0.68493    0.19562    0.12702   1.00
C5       0.50983    0.14537    0.32164   1.00
H2       0.48785    0.13641    0.34385   1.00
H2       0.53048    0.16568    0.33641   1.00
C5       0.53200    0.10967    0.30576   1.00
C5       0.54775    0.08501    0.33984   1.00
H2       0.30714    0.39391    0.12955   1.00
C5       0.31088    0.44738    0.16486   1.00
H2       0.35677    0.41567    0.13311   1.00
C5       0.46663    0.32333    0.46956   1.00
H2       0.49449    0.36649    0.43107   1.00
H2       0.44707    0.34698    0.41318   1.00
C5       0.69503    0.15047    0.06024   1.00
H2       0.69789    0.12644    0.11969   1.00
H2       0.65063    0.11876    0.09406   1.00
H2       0.56398    0.10469    0.36118   1.00
H2       0.52239    0.07024    0.35548   1.00
C5       0.57583    0.05374    0.32398   1.00
H2       0.29884    0.44271    0.19550   1.00
H2       0.33429    0.47099    0.16563   1.00
H2       0.28626    0.45685    0.14460   1.00
H2       0.48180    0.29401    0.47360   1.00
H2       0.47771    0.34478    0.49243   1.00
H2       0.43379    0.31939    0.47302   1.00
H2       0.71111    0.17943    0.06313   1.00
H2       0.71664    0.12655    0.05206   1.00
H2       0.67181    0.15299    0.03657   1.00
H2       0.60693    0.06552    0.32442   1.00
H2       0.57402    0.02653    0.34301   1.00
H2       0.56734    0.04602    0.29277   1.00
C5       1.13218    0.35061    0.32715   1.00
H2       1.14745    0.32645    0.34240   1.00
H2       1.11090    0.36252    0.34850   1.00
C5       1.16194    0.38216    0.31544   1.00
C5       1.17123    0.40903    0.35022   1.00
H2       1.15015    0.40008    0.29105   1.00
O3       0.98000    0.30206    0.20199   1.00
C4       1.02100    0.24959    0.25008   1.00
C3c      1.04243    0.27276    0.27621   1.00
H1       1.02725    0.29102    0.29697   1.00
C3d      1.04135    0.22558    0.22364   1.00
C3       1.08354    0.27323    0.27567   1.00
O2       1.10248    0.29287    0.30513   1.00
C3       1.08227    0.22654    0.22252   1.00
H1       1.09657    0.20867    0.20081   1.00
C2       1.10439    0.25012    0.24845   1.00
C5       0.97879    0.28991    0.16264   1.00
H2       0.94838    0.28824    0.15121   1.00
H2       0.99266    0.26068    0.15896   1.00
C5       1.00129    0.31982    0.13860   1.00
H2       1.03137    0.32230    0.15071   1.00
H2       0.98698    0.34881    0.14219   1.00
C5       1.00262    0.30802    0.09527   1.00
H2       0.97268    0.30523    0.08306   1.00
H2       1.01811    0.27973    0.09151   1.00
C5       1.02445    0.33927    0.07149   1.00
C5       1.01105    0.16776    0.21064   1.00
C5       1.11070    0.33150    0.29319   1.00
H2       0.99088    0.17088    0.23587   1.00
H2       1.03712    0.15074    0.22016   1.00
H2       1.08300    0.34744    0.28695   1.00
H2       1.12895    0.33261    0.26614   1.00
H2       1.19030    0.36886    0.30629   1.00
H2       0.94247    0.11871    0.21235   1.00
H2       0.98763    0.09088    0.21201   1.00
C2       0.89605    0.25023    0.24733   1.00
C3       0.91597    0.22511    0.27320   1.00
O2       0.89674    0.19421    0.29041   1.00
C3       0.91826    0.27617    0.22412   1.00
H1       0.90385    0.29647    0.20477   1.00
C3a      0.95713    0.22570    0.27456   1.00
H1       0.97202    0.20475    0.29287   1.00
C3b      0.95922    0.27582    0.22464   1.00
C4       0.97900    0.25041    0.24992   1.00
O3       1.02167    0.20449    0.19537   1.00
C5       0.88720    0.20331    0.32941   1.00
H2       0.91391    0.20986    0.34690   1.00
C5       0.86674    0.16769    0.34648   1.00
H2       0.86726    0.22897    0.33084   1.00
H2       0.88932    0.14581    0.35470   1.00
H2       0.84907    0.15429    0.32271   1.00
C5       0.84082    0.17762    0.38180   1.00
H2       0.85824    0.19371    0.40391   1.00
C5       0.82453    0.14023    0.40063   1.00
H2       0.81507    0.19562    0.37298   1.00
C5       0.99017    0.14537    0.17836   1.00
H2       1.01215    0.13641    0.15615   1.00
H2       0.96952    0.16568    0.16359   1.00
C5       0.96800    0.10967    0.19424   1.00
C5       0.95225    0.08501    0.16016   1.00
H2       1.19286    0.39391    0.37045   1.00
C5       1.18912    0.44738    0.33514   1.00
H2       1.14323    0.41567    0.36689   1.00
C5       1.03337    0.32333    0.03044   1.00
H2       1.00551    0.36649    0.06893   1.00
H2       1.05293    0.34698    0.08682   1.00
C5       0.80497    0.15047    0.43976   1.00
H2       0.80211    0.12644    0.38031   1.00
H2       0.84937    0.11876    0.40594   1.00
H2       0.93602    0.10469    0.13882   1.00
H2       0.97761    0.07024    0.14452   1.00
C5       0.92417    0.05374    0.17602   1.00
H2       1.20116    0.44271    0.30450   1.00
H2       1.16571    0.47099    0.33437   1.00
H2       1.21374    0.45685    0.35540   1.00
H2       1.01820    0.29401    0.02640   1.00
H2       1.02229    0.34478    0.00757   1.00
H2       1.06621    0.31939    0.02698   1.00
H2       0.78889    0.17943    0.43687   1.00
H2       0.78336    0.12655    0.44794   1.00
H2       0.82819    0.15299    0.46343   1.00
H2       0.89307    0.06552    0.17558   1.00
H2       0.92598    0.02653    0.15699   1.00
H2       0.93266    0.04602    0.20723   1.00
C5       0.67285    -0.13218   0.35061   1.00
H2       0.65760    -0.14745   0.32645   1.00
H2       0.65150    -0.11090   0.36252   1.00
C5       0.68456    -0.16194   0.38216   1.00
C5       0.64978    -0.17123   0.40903   1.00
H2       0.70895    -0.15015   0.40008   1.00
O3       0.79801    0.02000    0.30206   1.00
C4       0.74992    -0.02100   0.24959   1.00
C3c      0.72379    -0.04243   0.27276   1.00
H1       0.70303    -0.02725   0.29102   1.00
C3d      0.77636    -0.04135   0.22558   1.00
C3       0.72433    -0.08354   0.27323   1.00
O2       0.69487    -0.10248   0.29287   1.00
C3       0.77748    -0.08227   0.22654   1.00
H1       0.79919    -0.09657   0.20867   1.00
C2       0.75155    -0.10439   0.25012   1.00
C5       0.83736    0.02121    0.28991   1.00
H2       0.84879    0.05162    0.28824   1.00
H2       0.84104    0.00734    0.26068   1.00
C5       0.86140    -0.00129   0.31982   1.00
H2       0.84929    -0.03137   0.32230   1.00
H2       0.85781    0.01302    0.34881   1.00
C5       0.90473    -0.00262   0.30802   1.00
H2       0.91694    0.02732    0.30523   1.00
H2       0.90849    -0.01811   0.27973   1.00
C5       0.92851    -0.02445   0.33927   1.00
C5       0.78936    -0.01105   0.16776   1.00
C5       0.70681    -0.11070   0.33150   1.00
H2       0.76413    0.00912    0.17088   1.00
H2       0.77984    -0.03712   0.15074   1.00
H2       0.71305    -0.08300   0.34744   1.00
H2       0.73386    -0.12895   0.33261   1.00
H2       0.69371    -0.19030   0.36886   1.00
H2       0.78765    0.05753    0.11871   1.00
H2       0.78799    0.01237    0.09088   1.00
C2       0.75267    0.10395    0.25023   1.00
C3       0.72680    0.08403    0.22511   1.00
O2       0.70959    0.10326    0.19421   1.00
C3       0.77588    0.08174    0.27617   1.00
H1       0.79523    0.09615    0.29647   1.00
C3a      0.72544    0.04287    0.22570   1.00
H1       0.70713    0.02798    0.20475   1.00
C3b      0.77536    0.04078    0.27582   1.00
C4       0.75008    0.02100    0.25041   1.00
O3       0.80463    -0.02167   0.20449   1.00
C5       0.67059    0.11280    0.20331   1.00
H2       0.65310    0.08609    0.20986   1.00
C5       0.65352    0.13326    0.16769   1.00
H2       0.66916    0.13274    0.22897   1.00
H2       0.64530    0.11068    0.14581   1.00
H2       0.67729    0.15093    0.15429   1.00
C5       0.61820    0.15918    0.17762   1.00
H2       0.59609    0.14176    0.19371   1.00
C5       0.59937    0.17547    0.14023   1.00
H2       0.62702    0.18493    0.19562   1.00
C5       0.82164    0.00983    0.14537   1.00
H2       0.84385    -0.01215   0.13641   1.00
H2       0.83641    0.03048    0.16568   1.00
C5       0.80576    0.03200    0.10967   1.00
C5       0.83984    0.04775    0.08501   1.00
H2       0.62955    -0.19286   0.39391   1.00
C5       0.66486    -0.18912   0.44738   1.00
H2       0.63311    -0.14323   0.41567   1.00
C5       0.96956    -0.03337   0.32333   1.00
H2       0.93107    -0.00551   0.36649   1.00
H2       0.91318    -0.05293   0.34698   1.00
C5       0.56024    0.19503    0.15047   1.00
H2       0.61969    0.19789    0.12644   1.00
H2       0.59406    0.15063    0.11876   1.00
H2       0.86118    0.06398    0.10469   1.00
H2       0.85548    0.02239    0.07024   1.00
C5       0.82398    0.07583    0.05374   1.00
H2       0.69550    -0.20116   0.44271   1.00
H2       0.66563    -0.16571   0.47099   1.00
H2       0.64460    -0.21374   0.45685   1.00
H2       0.97360    -0.01820   0.29401   1.00
H2       0.99243    -0.02229   0.34478   1.00
H2       0.97302    -0.06621   0.31939   1.00
H2       0.56313    0.21111    0.17943   1.00
H2       0.55206    0.21664    0.12655   1.00
H2       0.53657    0.17181    0.15299   1.00
H2       0.82442    0.10693    0.06552   1.00
H2       0.84301    0.07402    0.02653   1.00
H2       0.79277    0.06734    0.04602   1.00
C5       0.85061    0.17285    -0.13218   1.00
H2       0.82645    0.15760    -0.14745   1.00
H2       0.86252    0.15150    -0.11090   1.00
C5       0.88216    0.18456    -0.16194   1.00
C5       0.90903    0.14978    -0.17123   1.00
H2       0.90008    0.20895    -0.15015   1.00
O3       0.80206    0.29801    0.02000   1.00
C4       0.74959    0.24992    -0.02100   1.00
C3c      0.77276    0.22379    -0.04243   1.00
H1       0.79102    0.20303    -0.02725   1.00
C3d      0.72558    0.27636    -0.04135   1.00
C3       0.77323    0.22433    -0.08354   1.00
O2       0.79287    0.19487    -0.10248   1.00
C3       0.72654    0.27748    -0.08227   1.00
H1       0.70867    0.29919    -0.09657   1.00
C2       0.75012    0.25155    -0.10439   1.00
C5       0.78991    0.33736    0.02121   1.00
H2       0.78824    0.34879    0.05162   1.00
H2       0.76068    0.34104    0.00734   1.00
C5       0.81982    0.36140    -0.00129   1.00
H2       0.82230    0.34929    -0.03137   1.00
H2       0.84881    0.35781    0.01302   1.00
C5       0.80802    0.40473    -0.00262   1.00
H2       0.80523    0.41694    0.02732   1.00
H2       0.77973    0.40849    -0.01811   1.00
C5       0.83927    0.42851    -0.02445   1.00
C5       0.66776    0.28936    -0.01105   1.00
C5       0.83150    0.20681    -0.11070   1.00
H2       0.67088    0.26413    0.00912   1.00
H2       0.65074    0.27984    -0.03712   1.00
H2       0.84744    0.21305    -0.08300   1.00
H2       0.83261    0.23386    -0.12895   1.00
H2       0.86886    0.19371    -0.19030   1.00
H2       0.61871    0.28765    0.05753   1.00
H2       0.59088    0.28799    0.01237   1.00
C2       0.75023    0.25267    0.10395   1.00
C3       0.72511    0.22680    0.08403   1.00
O2       0.69421    0.20959    0.10326   1.00
C3       0.77617    0.27588    0.08174   1.00
H1       0.79647    0.29523    0.09615   1.00
C3a      0.72570    0.22544    0.04287   1.00
H1       0.70475    0.20713    0.02798   1.00
C3b      0.77582    0.27536    0.04078   1.00
C4       0.75041    0.25008    0.02100   1.00
O3       0.70449    0.30463    -0.02167   1.00
C5       0.70331    0.17059    0.11280   1.00
H2       0.70986    0.15310    0.08609   1.00
C5       0.66769    0.15352    0.13326   1.00
H2       0.72897    0.16916    0.13274   1.00
H2       0.64581    0.14530    0.11068   1.00
H2       0.65429    0.17729    0.15093   1.00
C5       0.67762    0.11820    0.15918   1.00
H2       0.69371    0.09609    0.14176   1.00
C5       0.64023    0.09937    0.17547   1.00
H2       0.69562    0.12702    0.18493   1.00
C5       0.64537    0.32164    0.00983   1.00
H2       0.63641    0.34385    -0.01215   1.00
H2       0.66568    0.33641    0.03048   1.00
C5       0.60967    0.30576    0.03200   1.00
C5       0.58501    0.33984    0.04775   1.00
H2       0.89391    0.12955    -0.19286   1.00
C5       0.94738    0.16486    -0.18912   1.00
H2       0.91567    0.13311    -0.14323   1.00
C5       0.82333    0.46956    -0.03337   1.00
H2       0.86649    0.43107    -0.00551   1.00
H2       0.84698    0.41318    -0.05293   1.00
C5       0.65047    0.06024    0.19503   1.00
H2       0.62644    0.11969    0.19789   1.00
H2       0.61876    0.09406    0.15063   1.00
H2       0.60469    0.36118    0.06398   1.00
H2       0.57024    0.35548    0.02239   1.00
C5       0.55374    0.32398    0.07583   1.00
H2       0.94271    0.19550    -0.20116   1.00
H2       0.97099    0.16563    -0.16571   1.00
H2       0.95685    0.14460    -0.21374   1.00
H2       0.79401    0.47360    -0.01820   1.00
H2       0.84478    0.49243    -0.02229   1.00
H2       0.81939    0.47302    -0.06621   1.00
H2       0.67943    0.06313    0.21111   1.00
H2       0.62655    0.05206    0.21664   1.00
H2       0.65299    0.03657    0.17181   1.00
H2       0.56552    0.32442    0.10693   1.00
H2       0.52653    0.34301    0.07402   1.00
H2       0.54602    0.29277    0.06734   1.00
C5       1.10061    1.07715    1.38218   1.00
H2       1.07645    1.09240    1.39745   1.00
H2       1.11252    1.09850    1.36090   1.00
C5       1.13216    1.06544    1.41194   1.00
C5       1.15903    1.10022    1.42123   1.00
H2       1.15008    1.04105    1.40015   1.00
O3       1.05206    0.95199    1.23000   1.00
C4       0.99959    1.00008    1.27100   1.00
C3c      1.02276    1.02621    1.29243   1.00
H1       1.04102    1.04697    1.27725   1.00
C3d      0.97558    0.97364    1.29135   1.00
C3       1.02323    1.02567    1.33354   1.00
O2       1.04287    1.05513    1.35248   1.00
C3       0.97654    0.97252    1.33227   1.00
H1       0.95867    0.95081    1.34657   1.00
C2       1.00012    0.99845    1.35439   1.00
C5       1.03991    0.91264    1.22879   1.00
H2       1.03824    0.90121    1.19838   1.00
H2       1.01068    0.90896    1.24266   1.00
C5       1.06982    0.88860    1.25129   1.00
H2       1.07230    0.90071    1.28137   1.00
H2       1.09881    0.89219    1.23698   1.00
C5       1.05802    0.84527    1.25262   1.00
H2       1.05523    0.83306    1.22268   1.00
H2       1.02973    0.84151    1.26811   1.00
C5       1.08927    0.82149    1.27445   1.00
C5       0.91776    0.96064    1.26105   1.00
C5       1.08150    1.04319    1.36070   1.00
H2       0.92088    0.98587    1.24088   1.00
H2       0.90074    0.97016    1.28712   1.00
H2       1.09744    1.03695    1.33300   1.00
H2       1.08261    1.01614    1.37895   1.00
H2       1.11886    1.05629    1.44030   1.00
H2       0.86871    0.96235    1.19247   1.00
H2       0.84088    0.96201    1.23763   1.00
C2       1.00023    0.99733    1.14605   1.00
C3       0.97511    1.02320    1.16597   1.00
O2       0.94421    1.04041    1.14674   1.00
C3       1.02617    0.97412    1.16826   1.00
H1       1.04647    0.95477    1.15385   1.00
C3a      0.97570    1.02456    1.20713   1.00
H1       0.95475    1.04287    1.22202   1.00
C3b      1.02582    0.97464    1.20922   1.00
C4       1.00041    0.99992    1.22900   1.00
O3       0.95449    0.94537    1.27167   1.00
C5       0.95331    1.07941    1.13720   1.00
H2       0.95986    1.09690    1.16391   1.00
C5       0.91769    1.09648    1.11674   1.00
H2       0.97897    1.08084    1.11726   1.00
H2       0.89581    1.10470    1.13932   1.00
H2       0.90429    1.07271    1.09907   1.00
C5       0.92762    1.13180    1.09082   1.00
H2       0.94371    1.15391    1.10824   1.00
C5       0.89023    1.15063    1.07453   1.00
H2       0.94562    1.12298    1.06507   1.00
C5       0.89537    0.92836    1.24017   1.00
H2       0.88641    0.90615    1.26215   1.00
H2       0.91568    0.91359    1.21952   1.00
C5       0.85967    0.94424    1.21800   1.00
C5       0.83501    0.91016    1.20225   1.00
H2       1.14391    1.12045    1.44286   1.00
C5       1.19738    1.08514    1.43912   1.00
H2       1.16567    1.11689    1.39323   1.00
C5       1.07333    0.78044    1.28337   1.00
H2       1.11649    0.81893    1.25551   1.00
H2       1.09698    0.83682    1.30293   1.00
C5       0.90047    1.18976    1.05497   1.00
H2       0.87644    1.13031    1.05211   1.00
H2       0.86876    1.15594    1.09937   1.00
H2       0.85469    0.88882    1.18602   1.00
H2       0.82024    0.89452    1.22761   1.00
C5       0.80374    0.92602    1.17417   1.00
H2       1.19271    1.05450    1.45116   1.00
H2       1.22099    1.08437    1.41571   1.00
H2       1.20685    1.10540    1.46374   1.00
H2       1.04401    0.77640    1.26820   1.00
H2       1.09478    0.75757    1.27229   1.00
H2       1.06939    0.77698    1.31621   1.00
H2       0.92943    1.18687    1.03889   1.00
H2       0.87655    1.19794    1.03336   1.00
H2       0.90299    1.21343    1.07819   1.00
H2       0.81552    0.92558    1.14307   1.00
H2       0.77653    0.90699    1.17598   1.00
H2       0.79602    0.95723    1.18266   1.00
C5       1.07715    1.38218    1.10061   1.00
H2       1.09240    1.39745    1.07645   1.00
H2       1.09850    1.36090    1.11252   1.00
C5       1.06544    1.41194    1.13216   1.00
C5       1.10022    1.42123    1.15903   1.00
H2       1.04105    1.40015    1.15008   1.00
O3       0.95199    1.23000    1.05206   1.00
C4       1.00008    1.27100    0.99959   1.00
C3c      1.02621    1.29243    1.02276   1.00
H1       1.04697    1.27725    1.04102   1.00
C3d      0.97364    1.29135    0.97558   1.00
C3       1.02567    1.33354    1.02323   1.00
O2       1.05513    1.35248    1.04287   1.00
C3       0.97252    1.33227    0.97654   1.00
H1       0.95081    1.34657    0.95867   1.00
C2       0.99845    1.35439    1.00012   1.00
C5       0.91264    1.22879    1.03991   1.00
H2       0.90121    1.19838    1.03824   1.00
H2       0.90896    1.24266    1.01068   1.00
C5       0.88860    1.25129    1.06982   1.00
H2       0.90071    1.28137    1.07230   1.00
H2       0.89219    1.23698    1.09881   1.00
C5       0.84527    1.25262    1.05802   1.00
H2       0.83306    1.22268    1.05523   1.00
H2       0.84151    1.26811    1.02973   1.00
C5       0.82149    1.27445    1.08927   1.00
C5       0.96064    1.26105    0.91776   1.00
C5       1.04319    1.36070    1.08150   1.00
H2       0.98587    1.24088    0.92088   1.00
H2       0.97016    1.28712    0.90074   1.00
H2       1.03695    1.33300    1.09744   1.00
H2       1.01614    1.37895    1.08261   1.00
H2       1.05629    1.44030    1.11886   1.00
H2       0.96235    1.19247    0.86871   1.00
H2       0.96201    1.23763    0.84088   1.00
C2       0.99733    1.14605    1.00023   1.00
C3       1.02320    1.16597    0.97511   1.00
O2       1.04041    1.14674    0.94421   1.00
C3       0.97412    1.16826    1.02617   1.00
H1       0.95477    1.15385    1.04647   1.00
C3a      1.02456    1.20713    0.97570   1.00
H1       1.04287    1.22202    0.95475   1.00
C3b      0.97464    1.20922    1.02582   1.00
C4       0.99992    1.22900    1.00041   1.00
O3       0.94537    1.27167    0.95449   1.00
C5       1.07941    1.13720    0.95331   1.00
H2       1.09690    1.16391    0.95986   1.00
C5       1.09648    1.11674    0.91769   1.00
H2       1.08084    1.11726    0.97897   1.00
H2       1.10470    1.13932    0.89581   1.00
H2       1.07271    1.09907    0.90429   1.00
C5       1.13180    1.09082    0.92762   1.00
H2       1.15391    1.10824    0.94371   1.00
C5       1.15063    1.07453    0.89023   1.00
H2       1.12298    1.06507    0.94562   1.00
C5       0.92836    1.24017    0.89537   1.00
H2       0.90615    1.26215    0.88641   1.00
H2       0.91359    1.21952    0.91568   1.00
C5       0.94424    1.21800    0.85967   1.00
C5       0.91016    1.20225    0.83501   1.00
H2       1.12045    1.44286    1.14391   1.00
C5       1.08514    1.43912    1.19738   1.00
H2       1.11689    1.39323    1.16567   1.00
C5       0.78044    1.28337    1.07333   1.00
H2       0.81893    1.25551    1.11649   1.00
H2       0.83682    1.30293    1.09698   1.00
C5       1.18976    1.05497    0.90047   1.00
H2       1.13031    1.05211    0.87644   1.00
H2       1.15594    1.09937    0.86876   1.00
H2       0.88882    1.18602    0.85469   1.00
H2       0.89452    1.22761    0.82024   1.00
C5       0.92602    1.17417    0.80374   1.00
H2       1.05450    1.45116    1.19271   1.00
H2       1.08437    1.41571    1.22099   1.00
H2       1.10540    1.46374    1.20685   1.00
H2       0.77640    1.26820    1.04401   1.00
H2       0.75757    1.27229    1.09478   1.00
H2       0.77698    1.31621    1.06939   1.00
H2       1.18687    1.03889    0.92943   1.00
H2       1.19794    1.03336    0.87655   1.00
H2       1.21343    1.07819    0.90299   1.00
H2       0.92558    1.14307    0.81552   1.00
H2       0.90699    1.17598    0.77653   1.00
H2       0.95723    1.18266    0.79602   1.00
C5       0.61782    1.10061    0.92285   1.00
H2       0.60255    1.07645    0.90760   1.00
H2       0.63910    1.11252    0.90150   1.00
C5       0.58806    1.13216    0.93456   1.00
C5       0.57877    1.15903    0.89978   1.00
H2       0.59985    1.15008    0.95895   1.00
O3       0.77000    1.05206    1.04801   1.00
C4       0.72900    0.99959    0.99992   1.00
C3c      0.70757    1.02276    0.97379   1.00
H1       0.72275    1.04102    0.95303   1.00
C3d      0.70865    0.97558    1.02636   1.00
C3       0.66646    1.02323    0.97433   1.00
O2       0.64752    1.04287    0.94487   1.00
C3       0.66773    0.97654    1.02748   1.00
H1       0.65343    0.95867    1.04919   1.00
C2       0.64561    1.00012    1.00155   1.00
C5       0.77121    1.03991    1.08736   1.00
H2       0.80162    1.03824    1.09879   1.00
H2       0.75734    1.01068    1.09104   1.00
C5       0.74871    1.06982    1.11140   1.00
H2       0.71863    1.07230    1.09929   1.00
H2       0.76302    1.09881    1.10781   1.00
C5       0.74738    1.05802    1.15473   1.00
H2       0.77732    1.05523    1.16694   1.00
H2       0.73189    1.02973    1.15849   1.00
C5       0.72555    1.08927    1.17851   1.00
C5       0.73895    0.91776    1.03936   1.00
C5       0.63930    1.08150    0.95681   1.00
H2       0.75912    0.92088    1.01413   1.00
H2       0.71288    0.90074    1.02984   1.00
H2       0.66700    1.09744    0.96305   1.00
H2       0.62105    1.08261    0.98386   1.00
H2       0.55970    1.11886    0.94371   1.00
H2       0.80753    0.86871    1.03765   1.00
H2       0.76237    0.84088    1.03799   1.00
C2       0.85395    1.00023    1.00267   1.00
C3       0.83403    0.97511    0.97680   1.00
O2       0.85326    0.94421    0.95959   1.00
C3       0.83174    1.02617    1.02588   1.00
H1       0.84615    1.04647    1.04523   1.00
C3a      0.79287    0.97570    0.97544   1.00
H1       0.77798    0.95475    0.95713   1.00
C3b      0.79078    1.02582    1.02536   1.00
C4       0.77100    1.00041    1.00008   1.00
O3       0.72833    0.95449    1.05463   1.00
C5       0.86280    0.95331    0.92059   1.00
H2       0.83609    0.95986    0.90310   1.00
C5       0.88326    0.91769    0.90352   1.00
H2       0.88274    0.97897    0.91916   1.00
H2       0.86068    0.89581    0.89530   1.00
H2       0.90093    0.90429    0.92729   1.00
C5       0.90918    0.92762    0.86820   1.00
H2       0.89176    0.94371    0.84609   1.00
C5       0.92547    0.89023    0.84937   1.00
H2       0.93493    0.94562    0.87702   1.00
C5       0.75983    0.89537    1.07164   1.00
H2       0.73785    0.88641    1.09385   1.00
H2       0.78048    0.91568    1.08641   1.00
C5       0.78200    0.85967    1.05576   1.00
C5       0.79775    0.83501    1.08984   1.00
H2       0.55714    1.14391    0.87955   1.00
C5       0.56088    1.19738    0.91486   1.00
H2       0.60677    1.16567    0.88311   1.00
C5       0.71663    1.07333    1.21956   1.00
H2       0.74449    1.11649    1.18107   1.00
H2       0.69707    1.09698    1.16318   1.00
C5       0.94503    0.90047    0.81024   1.00
H2       0.94789    0.87644    0.86969   1.00
H2       0.90063    0.86876    0.84406   1.00
H2       0.81398    0.85469    1.11118   1.00
H2       0.77239    0.82024    1.10548   1.00
C5       0.82583    0.80374    1.07398   1.00
H2       0.54884    1.19271    0.94550   1.00
H2       0.58429    1.22099    0.91563   1.00
H2       0.53626    1.20685    0.89460   1.00
H2       0.73180    1.04401    1.22360   1.00
H2       0.72771    1.09478    1.24243   1.00
H2       0.68379    1.06939    1.22302   1.00
H2       0.96111    0.92943    0.81313   1.00
H2       0.96664    0.87655    0.80206   1.00
H2       0.92181    0.90299    0.78657   1.00
H2       0.85693    0.81552    1.07442   1.00
H2       0.82402    0.77653    1.09301   1.00
H2       0.81734    0.79602    1.04277   1.00
C5       1.38218    1.10061    1.07715   1.00
H2       1.39745    1.07645    1.09240   1.00
H2       1.36090    1.11252    1.09850   1.00
C5       1.41194    1.13216    1.06544   1.00
C5       1.42123    1.15903    1.10022   1.00
H2       1.40015    1.15008    1.04105   1.00
O3       1.23000    1.05206    0.95199   1.00
C4       1.27100    0.99959    1.00008   1.00
C3c      1.29243    1.02276    1.02621   1.00
H1       1.27725    1.04102    1.04697   1.00
C3d      1.29135    0.97558    0.97364   1.00
C3       1.33354    1.02323    1.02567   1.00
O2       1.35248    1.04287    1.05513   1.00
C3       1.33227    0.97654    0.97252   1.00
H1       1.34657    0.95867    0.95081   1.00
C2       1.35439    1.00012    0.99845   1.00
C5       1.22879    1.03991    0.91264   1.00
H2       1.19838    1.03824    0.90121   1.00
H2       1.24266    1.01068    0.90896   1.00
C5       1.25129    1.06982    0.88860   1.00
H2       1.28137    1.07230    0.90071   1.00
H2       1.23698    1.09881    0.89219   1.00
C5       1.25262    1.05802    0.84527   1.00
H2       1.22268    1.05523    0.83306   1.00
H2       1.26811    1.02973    0.84151   1.00
C5       1.27445    1.08927    0.82149   1.00
C5       1.26105    0.91776    0.96064   1.00
C5       1.36070    1.08150    1.04319   1.00
H2       1.24088    0.92088    0.98587   1.00
H2       1.28712    0.90074    0.97016   1.00
H2       1.33300    1.09744    1.03695   1.00
H2       1.37895    1.08261    1.01614   1.00
H2       1.44030    1.11886    1.05629   1.00
H2       1.19247    0.86871    0.96235   1.00
H2       1.23763    0.84088    0.96201   1.00
C2       1.14605    1.00023    0.99733   1.00
C3       1.16597    0.97511    1.02320   1.00
O2       1.14674    0.94421    1.04041   1.00
C3       1.16826    1.02617    0.97412   1.00
H1       1.15385    1.04647    0.95477   1.00
C3a      1.20713    0.97570    1.02456   1.00
H1       1.22202    0.95475    1.04287   1.00
C3b      1.20922    1.02582    0.97464   1.00
C4       1.22900    1.00041    0.99992   1.00
O3       1.27167    0.95449    0.94537   1.00
C5       1.13720    0.95331    1.07941   1.00
H2       1.16391    0.95986    1.09690   1.00
C5       1.11674    0.91769    1.09648   1.00
H2       1.11726    0.97897    1.08084   1.00
H2       1.13932    0.89581    1.10470   1.00
H2       1.09907    0.90429    1.07271   1.00
C5       1.09082    0.92762    1.13180   1.00
H2       1.10824    0.94371    1.15391   1.00
C5       1.07453    0.89023    1.15063   1.00
H2       1.06507    0.94562    1.12298   1.00
C5       1.24017    0.89537    0.92836   1.00
H2       1.26215    0.88641    0.90615   1.00
H2       1.21952    0.91568    0.91359   1.00
C5       1.21800    0.85967    0.94424   1.00
C5       1.20225    0.83501    0.91016   1.00
H2       1.44286    1.14391    1.12045   1.00
C5       1.43912    1.19738    1.08514   1.00
H2       1.39323    1.16567    1.11689   1.00
C5       1.28337    1.07333    0.78044   1.00
H2       1.25551    1.11649    0.81893   1.00
H2       1.30293    1.09698    0.83682   1.00
C5       1.05497    0.90047    1.18976   1.00
H2       1.05211    0.87644    1.13031   1.00
H2       1.09937    0.86876    1.15594   1.00
H2       1.18602    0.85469    0.88882   1.00
H2       1.22761    0.82024    0.89452   1.00
C5       1.17417    0.80374    0.92602   1.00
H2       1.45116    1.19271    1.05450   1.00
H2       1.41571    1.22099    1.08437   1.00
H2       1.46374    1.20685    1.10540   1.00
H2       1.26820    1.04401    0.77640   1.00
H2       1.27229    1.09478    0.75757   1.00
H2       1.31621    1.06939    0.77698   1.00
H2       1.03889    0.92943    1.18687   1.00
H2       1.03336    0.87655    1.19794   1.00
H2       1.07819    0.90299    1.21343   1.00
H2       1.14307    0.81552    0.92558   1.00
H2       1.17598    0.77653    0.90699   1.00
H2       1.18266    0.79602    0.95723   1.00
C5       0.92285    0.61782    1.10061   1.00
H2       0.90760    0.60255    1.07645   1.00
H2       0.90150    0.63910    1.11252   1.00
C5       0.93456    0.58806    1.13216   1.00
C5       0.89978    0.57877    1.15903   1.00
H2       0.95895    0.59985    1.15008   1.00
O3       1.04801    0.77000    1.05206   1.00
C4       0.99992    0.72900    0.99959   1.00
C3c      0.97379    0.70757    1.02276   1.00
H1       0.95303    0.72275    1.04102   1.00
C3d      1.02636    0.70865    0.97558   1.00
C3       0.97433    0.66646    1.02323   1.00
O2       0.94487    0.64752    1.04287   1.00
C3       1.02748    0.66773    0.97654   1.00
H1       1.04919    0.65343    0.95867   1.00
C2       1.00155    0.64561    1.00012   1.00
C5       1.08736    0.77121    1.03991   1.00
H2       1.09879    0.80162    1.03824   1.00
H2       1.09104    0.75734    1.01068   1.00
C5       1.11140    0.74871    1.06982   1.00
H2       1.09929    0.71863    1.07230   1.00
H2       1.10781    0.76302    1.09881   1.00
C5       1.15473    0.74738    1.05802   1.00
H2       1.16694    0.77732    1.05523   1.00
H2       1.15849    0.73189    1.02973   1.00
C5       1.17851    0.72555    1.08927   1.00
C5       1.03936    0.73895    0.91776   1.00
C5       0.95681    0.63930    1.08150   1.00
H2       1.01413    0.75912    0.92088   1.00
H2       1.02984    0.71288    0.90074   1.00
H2       0.96305    0.66700    1.09744   1.00
H2       0.98386    0.62105    1.08261   1.00
H2       0.94371    0.55970    1.11886   1.00
H2       1.03765    0.80753    0.86871   1.00
H2       1.03799    0.76237    0.84088   1.00
C2       1.00267    0.85395    1.00023   1.00
C3       0.97680    0.83403    0.97511   1.00
O2       0.95959    0.85326    0.94421   1.00
C3       1.02588    0.83174    1.02617   1.00
H1       1.04523    0.84615    1.04647   1.00
C3a      0.97544    0.79287    0.97570   1.00
H1       0.95713    0.77798    0.95475   1.00
C3b      1.02536    0.79078    1.02582   1.00
C4       1.00008    0.77100    1.00041   1.00
O3       1.05463    0.72833    0.95449   1.00
C5       0.92059    0.86280    0.95331   1.00
H2       0.90310    0.83609    0.95986   1.00
C5       0.90352    0.88326    0.91769   1.00
H2       0.91916    0.88274    0.97897   1.00
H2       0.89530    0.86068    0.89581   1.00
H2       0.92729    0.90093    0.90429   1.00
C5       0.86820    0.90918    0.92762   1.00
H2       0.84609    0.89176    0.94371   1.00
C5       0.84937    0.92547    0.89023   1.00
H2       0.87702    0.93493    0.94562   1.00
C5       1.07164    0.75983    0.89537   1.00
H2       1.09385    0.73785    0.88641   1.00
H2       1.08641    0.78048    0.91568   1.00
C5       1.05576    0.78200    0.85967   1.00
C5       1.08984    0.79775    0.83501   1.00
H2       0.87955    0.55714    1.14391   1.00
C5       0.91486    0.56088    1.19738   1.00
H2       0.88311    0.60677    1.16567   1.00
C5       1.21956    0.71663    1.07333   1.00
H2       1.18107    0.74449    1.11649   1.00
H2       1.16318    0.69707    1.09698   1.00
C5       0.81024    0.94503    0.90047   1.00
H2       0.86969    0.94789    0.87644   1.00
H2       0.84406    0.90063    0.86876   1.00
H2       1.11118    0.81398    0.85469   1.00
H2       1.10548    0.77239    0.82024   1.00
C5       1.07398    0.82583    0.80374   1.00
H2       0.94550    0.54884    1.19271   1.00
H2       0.91563    0.58429    1.22099   1.00
H2       0.89460    0.53626    1.20685   1.00
H2       1.22360    0.73180    1.04401   1.00
H2       1.24243    0.72771    1.09478   1.00
H2       1.22302    0.68379    1.06939   1.00
H2       0.81313    0.96111    0.92943   1.00
H2       0.80206    0.96664    0.87655   1.00
H2       0.78657    0.92181    0.90299   1.00
H2       1.07442    0.85693    0.81552   1.00
H2       1.09301    0.82402    0.77653   1.00
H2       1.04277    0.81734    0.79602   1.00
C5       1.10061    0.92285    0.61782   1.00
H2       1.07645    0.90760    0.60255   1.00
H2       1.11252    0.90150    0.63910   1.00
C5       1.13216    0.93456    0.58806   1.00
C5       1.15903    0.89978    0.57877   1.00
H2       1.15008    0.95895    0.59985   1.00
O3       1.05206    1.04801    0.77000   1.00
C4       0.99959    0.99992    0.72900   1.00
C3c      1.02276    0.97379    0.70757   1.00
H1       1.04102    0.95303    0.72275   1.00
C3d      0.97558    1.02636    0.70865   1.00
C3       1.02323    0.97433    0.66646   1.00
O2       1.04287    0.94487    0.64752   1.00
C3       0.97654    1.02748    0.66773   1.00
H1       0.95867    1.04919    0.65343   1.00
C2       1.00012    1.00155    0.64561   1.00
C5       1.03991    1.08736    0.77121   1.00
H2       1.03824    1.09879    0.80162   1.00
H2       1.01068    1.09104    0.75734   1.00
C5       1.06982    1.11140    0.74871   1.00
H2       1.07230    1.09929    0.71863   1.00
H2       1.09881    1.10781    0.76302   1.00
C5       1.05802    1.15473    0.74738   1.00
H2       1.05523    1.16694    0.77732   1.00
H2       1.02973    1.15849    0.73189   1.00
C5       1.08927    1.17851    0.72555   1.00
C5       0.91776    1.03936    0.73895   1.00
C5       1.08150    0.95681    0.63930   1.00
H2       0.92088    1.01413    0.75912   1.00
H2       0.90074    1.02984    0.71288   1.00
H2       1.09744    0.96305    0.66700   1.00
H2       1.08261    0.98386    0.62105   1.00
H2       1.11886    0.94371    0.55970   1.00
H2       0.86871    1.03765    0.80753   1.00
H2       0.84088    1.03799    0.76237   1.00
C2       1.00023    1.00267    0.85395   1.00
C3       0.97511    0.97680    0.83403   1.00
O2       0.94421    0.95959    0.85326   1.00
C3       1.02617    1.02588    0.83174   1.00
H1       1.04647    1.04523    0.84615   1.00
C3a      0.97570    0.97544    0.79287   1.00
H1       0.95475    0.95713    0.77798   1.00
C3b      1.02582    1.02536    0.79078   1.00
C4       1.00041    1.00008    0.77100   1.00
O3       0.95449    1.05463    0.72833   1.00
C5       0.95331    0.92059    0.86280   1.00
H2       0.95986    0.90310    0.83609   1.00
C5       0.91769    0.90352    0.88326   1.00
H2       0.97897    0.91916    0.88274   1.00
H2       0.89581    0.89530    0.86068   1.00
H2       0.90429    0.92729    0.90093   1.00
C5       0.92762    0.86820    0.90918   1.00
H2       0.94371    0.84609    0.89176   1.00
C5       0.89023    0.84937    0.92547   1.00
H2       0.94562    0.87702    0.93493   1.00
C5       0.89537    1.07164    0.75983   1.00
H2       0.88641    1.09385    0.73785   1.00
H2       0.91568    1.08641    0.78048   1.00
C5       0.85967    1.05576    0.78200   1.00
C5       0.83501    1.08984    0.79775   1.00
H2       1.14391    0.87955    0.55714   1.00
C5       1.19738    0.91486    0.56088   1.00
H2       1.16567    0.88311    0.60677   1.00
C5       1.07333    1.21956    0.71663   1.00
H2       1.11649    1.18107    0.74449   1.00
H2       1.09698    1.16318    0.69707   1.00
C5       0.90047    0.81024    0.94503   1.00
H2       0.87644    0.86969    0.94789   1.00
H2       0.86876    0.84406    0.90063   1.00
H2       0.85469    1.11118    0.81398   1.00
H2       0.82024    1.10548    0.77239   1.00
C5       0.80374    1.07398    0.82583   1.00
H2       1.19271    0.94550    0.54884   1.00
H2       1.22099    0.91563    0.58429   1.00
H2       1.20685    0.89460    0.53626   1.00
H2       1.04401    1.22360    0.73180   1.00
H2       1.09478    1.24243    0.72771   1.00
H2       1.06939    1.22302    0.68379   1.00
H2       0.92943    0.81313    0.96111   1.00
H2       0.87655    0.80206    0.96664   1.00
H2       0.90299    0.78657    0.92181   1.00
H2       0.81552    1.07442    0.85693   1.00
H2       0.77653    1.09301    0.82402   1.00
H2       0.79602    1.04277    0.81734   1.00
C5       0.60061    0.57715    1.38218   1.00
H2       0.57645    0.59240    1.39745   1.00
H2       0.61252    0.59850    1.36090   1.00
C5       0.63216    0.56544    1.41194   1.00
C5       0.65903    0.60022    1.42123   1.00
H2       0.65008    0.54105    1.40015   1.00
O3       0.55206    0.45199    1.23000   1.00
C4       0.49959    0.50008    1.27100   1.00
C3c      0.52276    0.52621    1.29243   1.00
H1       0.54102    0.54697    1.27725   1.00
C3d      0.47558    0.47364    1.29135   1.00
C3       0.52323    0.52567    1.33354   1.00
O2       0.54287    0.55513    1.35248   1.00
C3       0.47654    0.47252    1.33227   1.00
H1       0.45867    0.45081    1.34657   1.00
C2       0.50012    0.49845    1.35439   1.00
C5       0.53991    0.41264    1.22879   1.00
H2       0.53824    0.40121    1.19838   1.00
H2       0.51068    0.40896    1.24266   1.00
C5       0.56982    0.38860    1.25129   1.00
H2       0.57230    0.40071    1.28137   1.00
H2       0.59881    0.39219    1.23698   1.00
C5       0.55802    0.34527    1.25262   1.00
H2       0.55523    0.33306    1.22268   1.00
H2       0.52973    0.34151    1.26811   1.00
C5       0.58927    0.32149    1.27445   1.00
C5       0.41776    0.46064    1.26105   1.00
C5       0.58150    0.54319    1.36070   1.00
H2       0.42088    0.48587    1.24088   1.00
H2       0.40074    0.47016    1.28712   1.00
H2       0.59744    0.53695    1.33300   1.00
H2       0.58261    0.51614    1.37895   1.00
H2       0.61886    0.55629    1.44030   1.00
H2       0.36871    0.46235    1.19247   1.00
H2       0.34088    0.46201    1.23763   1.00
C2       0.50023    0.49733    1.14605   1.00
C3       0.47511    0.52320    1.16597   1.00
O2       0.44421    0.54041    1.14674   1.00
C3       0.52617    0.47412    1.16826   1.00
H1       0.54647    0.45477    1.15385   1.00
C3a      0.47570    0.52456    1.20713   1.00
H1       0.45475    0.54287    1.22202   1.00
C3b      0.52582    0.47464    1.20922   1.00
C4       0.50041    0.49992    1.22900   1.00
O3       0.45449    0.44537    1.27167   1.00
C5       0.45331    0.57941    1.13720   1.00
H2       0.45986    0.59690    1.16391   1.00
C5       0.41769    0.59648    1.11674   1.00
H2       0.47897    0.58084    1.11726   1.00
H2       0.39581    0.60470    1.13932   1.00
H2       0.40429    0.57271    1.09907   1.00
C5       0.42762    0.63180    1.09082   1.00
H2       0.44371    0.65391    1.10824   1.00
C5       0.39023    0.65063    1.07453   1.00
H2       0.44562    0.62298    1.06507   1.00
C5       0.39537    0.42836    1.24017   1.00
H2       0.38641    0.40615    1.26215   1.00
H2       0.41568    0.41359    1.21952   1.00
C5       0.35967    0.44424    1.21800   1.00
C5       0.33501    0.41016    1.20225   1.00
H2       0.64391    0.62045    1.44286   1.00
C5       0.69738    0.58514    1.43912   1.00
H2       0.66567    0.61689    1.39323   1.00
C5       0.57333    0.28044    1.28337   1.00
H2       0.61649    0.31893    1.25551   1.00
H2       0.59698    0.33682    1.30293   1.00
C5       0.40047    0.68976    1.05497   1.00
H2       0.37644    0.63031    1.05211   1.00
H2       0.36876    0.65594    1.09937   1.00
H2       0.35469    0.38882    1.18602   1.00
H2       0.32024    0.39452    1.22761   1.00
C5       0.30374    0.42602    1.17417   1.00
H2       0.69271    0.55450    1.45116   1.00
H2       0.72099    0.58437    1.41571   1.00
H2       0.70685    0.60540    1.46374   1.00
H2       0.54401    0.27640    1.26820   1.00
H2       0.59478    0.25757    1.27229   1.00
H2       0.56939    0.27698    1.31621   1.00
H2       0.42943    0.68687    1.03889   1.00
H2       0.37655    0.69794    1.03336   1.00
H2       0.40299    0.71343    1.07819   1.00
H2       0.31552    0.42558    1.14307   1.00
H2       0.27653    0.40699    1.17598   1.00
H2       0.29602    0.45723    1.18266   1.00
C5       0.57715    0.88218    1.10061   1.00
H2       0.59240    0.89745    1.07645   1.00
H2       0.59850    0.86090    1.11252   1.00
C5       0.56544    0.91194    1.13216   1.00
C5       0.60022    0.92123    1.15903   1.00
H2       0.54105    0.90015    1.15008   1.00
O3       0.45199    0.73000    1.05206   1.00
C4       0.50008    0.77100    0.99959   1.00
C3c      0.52621    0.79243    1.02276   1.00
H1       0.54697    0.77725    1.04102   1.00
C3d      0.47364    0.79135    0.97558   1.00
C3       0.52567    0.83354    1.02323   1.00
O2       0.55513    0.85248    1.04287   1.00
C3       0.47252    0.83227    0.97654   1.00
H1       0.45081    0.84657    0.95867   1.00
C2       0.49845    0.85439    1.00012   1.00
C5       0.41264    0.72879    1.03991   1.00
H2       0.40121    0.69838    1.03824   1.00
H2       0.40896    0.74266    1.01068   1.00
C5       0.38860    0.75129    1.06982   1.00
H2       0.40071    0.78137    1.07230   1.00
H2       0.39219    0.73698    1.09881   1.00
C5       0.34527    0.75262    1.05802   1.00
H2       0.33306    0.72268    1.05523   1.00
H2       0.34151    0.76811    1.02973   1.00
C5       0.32149    0.77445    1.08927   1.00
C5       0.46064    0.76105    0.91776   1.00
C5       0.54319    0.86070    1.08150   1.00
H2       0.48587    0.74088    0.92088   1.00
H2       0.47016    0.78712    0.90074   1.00
H2       0.53695    0.83300    1.09744   1.00
H2       0.51614    0.87895    1.08261   1.00
H2       0.55629    0.94030    1.11886   1.00
H2       0.46235    0.69247    0.86871   1.00
H2       0.46201    0.73763    0.84088   1.00
C2       0.49733    0.64605    1.00023   1.00
C3       0.52320    0.66597    0.97511   1.00
O2       0.54041    0.64674    0.94421   1.00
C3       0.47412    0.66826    1.02617   1.00
H1       0.45477    0.65385    1.04647   1.00
C3a      0.52456    0.70713    0.97570   1.00
H1       0.54287    0.72202    0.95475   1.00
C3b      0.47464    0.70922    1.02582   1.00
C4       0.49992    0.72900    1.00041   1.00
O3       0.44537    0.77167    0.95449   1.00
C5       0.57941    0.63720    0.95331   1.00
H2       0.59690    0.66391    0.95986   1.00
C5       0.59648    0.61674    0.91769   1.00
H2       0.58084    0.61726    0.97897   1.00
H2       0.60470    0.63932    0.89581   1.00
H2       0.57271    0.59907    0.90429   1.00
C5       0.63180    0.59082    0.92762   1.00
H2       0.65391    0.60824    0.94371   1.00
C5       0.65063    0.57453    0.89023   1.00
H2       0.62298    0.56507    0.94562   1.00
C5       0.42836    0.74017    0.89537   1.00
H2       0.40615    0.76215    0.88641   1.00
H2       0.41359    0.71952    0.91568   1.00
C5       0.44424    0.71800    0.85967   1.00
C5       0.41016    0.70225    0.83501   1.00
H2       0.62045    0.94286    1.14391   1.00
C5       0.58514    0.93912    1.19738   1.00
H2       0.61689    0.89323    1.16567   1.00
C5       0.28044    0.78337    1.07333   1.00
H2       0.31893    0.75551    1.11649   1.00
H2       0.33682    0.80293    1.09698   1.00
C5       0.68976    0.55497    0.90047   1.00
H2       0.63031    0.55211    0.87644   1.00
H2       0.65594    0.59937    0.86876   1.00
H2       0.38882    0.68602    0.85469   1.00
H2       0.39452    0.72761    0.82024   1.00
C5       0.42602    0.67417    0.80374   1.00
H2       0.55450    0.95116    1.19271   1.00
H2       0.58437    0.91571    1.22099   1.00
H2       0.60540    0.96374    1.20685   1.00
H2       0.27640    0.76820    1.04401   1.00
H2       0.25757    0.77229    1.09478   1.00
H2       0.27698    0.81621    1.06939   1.00
H2       0.68687    0.53889    0.92943   1.00
H2       0.69794    0.53336    0.87655   1.00
H2       0.71343    0.57819    0.90299   1.00
H2       0.42558    0.64307    0.81552   1.00
H2       0.40699    0.67598    0.77653   1.00
H2       0.45723    0.68266    0.79602   1.00
C5       0.11782    0.60061    0.92285   1.00
H2       0.10255    0.57645    0.90760   1.00
H2       0.13910    0.61252    0.90150   1.00
C5       0.08806    0.63216    0.93456   1.00
C5       0.07877    0.65903    0.89978   1.00
H2       0.09985    0.65008    0.95895   1.00
O3       0.27000    0.55206    1.04801   1.00
C4       0.22900    0.49959    0.99992   1.00
C3c      0.20757    0.52276    0.97379   1.00
H1       0.22275    0.54102    0.95303   1.00
C3d      0.20865    0.47558    1.02636   1.00
C3       0.16646    0.52323    0.97433   1.00
O2       0.14752    0.54287    0.94487   1.00
C3       0.16773    0.47654    1.02748   1.00
H1       0.15343    0.45867    1.04919   1.00
C2       0.14561    0.50012    1.00155   1.00
C5       0.27121    0.53991    1.08736   1.00
H2       0.30162    0.53824    1.09879   1.00
H2       0.25734    0.51068    1.09104   1.00
C5       0.24871    0.56982    1.11140   1.00
H2       0.21863    0.57230    1.09929   1.00
H2       0.26302    0.59881    1.10781   1.00
C5       0.24738    0.55802    1.15473   1.00
H2       0.27732    0.55523    1.16694   1.00
H2       0.23189    0.52973    1.15849   1.00
C5       0.22555    0.58927    1.17851   1.00
C5       0.23895    0.41776    1.03936   1.00
C5       0.13930    0.58150    0.95681   1.00
H2       0.25912    0.42088    1.01413   1.00
H2       0.21288    0.40074    1.02984   1.00
H2       0.16700    0.59744    0.96305   1.00
H2       0.12105    0.58261    0.98386   1.00
H2       0.05970    0.61886    0.94371   1.00
H2       0.30753    0.36871    1.03765   1.00
H2       0.26237    0.34088    1.03799   1.00
C2       0.35395    0.50023    1.00267   1.00
C3       0.33403    0.47511    0.97680   1.00
O2       0.35326    0.44421    0.95959   1.00
C3       0.33174    0.52617    1.02588   1.00
H1       0.34615    0.54647    1.04523   1.00
C3a      0.29287    0.47570    0.97544   1.00
H1       0.27798    0.45475    0.95713   1.00
C3b      0.29078    0.52582    1.02536   1.00
C4       0.27100    0.50041    1.00008   1.00
O3       0.22833    0.45449    1.05463   1.00
C5       0.36280    0.45331    0.92059   1.00
H2       0.33609    0.45986    0.90310   1.00
C5       0.38326    0.41769    0.90352   1.00
H2       0.38274    0.47897    0.91916   1.00
H2       0.36068    0.39581    0.89530   1.00
H2       0.40093    0.40429    0.92729   1.00
C5       0.40918    0.42762    0.86820   1.00
H2       0.39176    0.44371    0.84609   1.00
C5       0.42547    0.39023    0.84937   1.00
H2       0.43493    0.44562    0.87702   1.00
C5       0.25983    0.39537    1.07164   1.00
H2       0.23785    0.38641    1.09385   1.00
H2       0.28048    0.41568    1.08641   1.00
C5       0.28200    0.35967    1.05576   1.00
C5       0.29775    0.33501    1.08984   1.00
H2       0.05714    0.64391    0.87955   1.00
C5       0.06088    0.69738    0.91486   1.00
H2       0.10677    0.66567    0.88311   1.00
C5       0.21663    0.57333    1.21956   1.00
H2       0.24449    0.61649    1.18107   1.00
H2       0.19707    0.59698    1.16318   1.00
C5       0.44503    0.40047    0.81024   1.00
H2       0.44789    0.37644    0.86969   1.00
H2       0.40063    0.36876    0.84406   1.00
H2       0.31398    0.35469    1.11118   1.00
H2       0.27239    0.32024    1.10548   1.00
C5       0.32583    0.30374    1.07398   1.00
H2       0.04884    0.69271    0.94550   1.00
H2       0.08429    0.72099    0.91563   1.00
H2       0.03626    0.70685    0.89460   1.00
H2       0.23180    0.54401    1.22360   1.00
H2       0.22771    0.59478    1.24243   1.00
H2       0.18379    0.56939    1.22302   1.00
H2       0.46111    0.42943    0.81313   1.00
H2       0.46664    0.37655    0.80206   1.00
H2       0.42181    0.40299    0.78657   1.00
H2       0.35693    0.31552    1.07442   1.00
H2       0.32402    0.27653    1.09301   1.00
H2       0.31734    0.29602    1.04277   1.00
C5       0.88218    0.60061    1.07715   1.00
H2       0.89745    0.57645    1.09240   1.00
H2       0.86090    0.61252    1.09850   1.00
C5       0.91194    0.63216    1.06544   1.00
C5       0.92123    0.65903    1.10022   1.00
H2       0.90015    0.65008    1.04105   1.00
O3       0.73000    0.55206    0.95199   1.00
C4       0.77100    0.49959    1.00008   1.00
C3c      0.79243    0.52276    1.02621   1.00
H1       0.77725    0.54102    1.04697   1.00
C3d      0.79135    0.47558    0.97364   1.00
C3       0.83354    0.52323    1.02567   1.00
O2       0.85248    0.54287    1.05513   1.00
C3       0.83227    0.47654    0.97252   1.00
H1       0.84657    0.45867    0.95081   1.00
C2       0.85439    0.50012    0.99845   1.00
C5       0.72879    0.53991    0.91264   1.00
H2       0.69838    0.53824    0.90121   1.00
H2       0.74266    0.51068    0.90896   1.00
C5       0.75129    0.56982    0.88860   1.00
H2       0.78137    0.57230    0.90071   1.00
H2       0.73698    0.59881    0.89219   1.00
C5       0.75262    0.55802    0.84527   1.00
H2       0.72268    0.55523    0.83306   1.00
H2       0.76811    0.52973    0.84151   1.00
C5       0.77445    0.58927    0.82149   1.00
C5       0.76105    0.41776    0.96064   1.00
C5       0.86070    0.58150    1.04319   1.00
H2       0.74088    0.42088    0.98587   1.00
H2       0.78712    0.40074    0.97016   1.00
H2       0.83300    0.59744    1.03695   1.00
H2       0.87895    0.58261    1.01614   1.00
H2       0.94030    0.61886    1.05629   1.00
H2       0.69247    0.36871    0.96235   1.00
H2       0.73763    0.34088    0.96201   1.00
C2       0.64605    0.50023    0.99733   1.00
C3       0.66597    0.47511    1.02320   1.00
O2       0.64674    0.44421    1.04041   1.00
C3       0.66826    0.52617    0.97412   1.00
H1       0.65385    0.54647    0.95477   1.00
C3a      0.70713    0.47570    1.02456   1.00
H1       0.72202    0.45475    1.04287   1.00
C3b      0.70922    0.52582    0.97464   1.00
C4       0.72900    0.50041    0.99992   1.00
O3       0.77167    0.45449    0.94537   1.00
C5       0.63720    0.45331    1.07941   1.00
H2       0.66391    0.45986    1.09690   1.00
C5       0.61674    0.41769    1.09648   1.00
H2       0.61726    0.47897    1.08084   1.00
H2       0.63932    0.39581    1.10470   1.00
H2       0.59907    0.40429    1.07271   1.00
C5       0.59082    0.42762    1.13180   1.00
H2       0.60824    0.44371    1.15391   1.00
C5       0.57453    0.39023    1.15063   1.00
H2       0.56507    0.44562    1.12298   1.00
C5       0.74017    0.39537    0.92836   1.00
H2       0.76215    0.38641    0.90615   1.00
H2       0.71952    0.41568    0.91359   1.00
C5       0.71800    0.35967    0.94424   1.00
C5       0.70225    0.33501    0.91016   1.00
H2       0.94286    0.64391    1.12045   1.00
C5       0.93912    0.69738    1.08514   1.00
H2       0.89323    0.66567    1.11689   1.00
C5       0.78337    0.57333    0.78044   1.00
H2       0.75551    0.61649    0.81893   1.00
H2       0.80293    0.59698    0.83682   1.00
C5       0.55497    0.40047    1.18976   1.00
H2       0.55211    0.37644    1.13031   1.00
H2       0.59937    0.36876    1.15594   1.00
H2       0.68602    0.35469    0.88882   1.00
H2       0.72761    0.32024    0.89452   1.00
C5       0.67417    0.30374    0.92602   1.00
H2       0.95116    0.69271    1.05450   1.00
H2       0.91571    0.72099    1.08437   1.00
H2       0.96374    0.70685    1.10540   1.00
H2       0.76820    0.54401    0.77640   1.00
H2       0.77229    0.59478    0.75757   1.00
H2       0.81621    0.56939    0.77698   1.00
H2       0.53889    0.42943    1.18687   1.00
H2       0.53336    0.37655    1.19794   1.00
H2       0.57819    0.40299    1.21343   1.00
H2       0.64307    0.31552    0.92558   1.00
H2       0.67598    0.27653    0.90699   1.00
H2       0.68266    0.29602    0.95723   1.00
C5       0.42285    0.11782    1.10061   1.00
H2       0.40760    0.10255    1.07645   1.00
H2       0.40150    0.13910    1.11252   1.00
C5       0.43456    0.08806    1.13216   1.00
C5       0.39978    0.07877    1.15903   1.00
H2       0.45895    0.09985    1.15008   1.00
O3       0.54801    0.27000    1.05206   1.00
C4       0.49992    0.22900    0.99959   1.00
C3c      0.47379    0.20757    1.02276   1.00
H1       0.45303    0.22275    1.04102   1.00
C3d      0.52636    0.20865    0.97558   1.00
C3       0.47433    0.16646    1.02323   1.00
O2       0.44487    0.14752    1.04287   1.00
C3       0.52748    0.16773    0.97654   1.00
H1       0.54919    0.15343    0.95867   1.00
C2       0.50155    0.14561    1.00012   1.00
C5       0.58736    0.27121    1.03991   1.00
H2       0.59879    0.30162    1.03824   1.00
H2       0.59104    0.25734    1.01068   1.00
C5       0.61140    0.24871    1.06982   1.00
H2       0.59929    0.21863    1.07230   1.00
H2       0.60781    0.26302    1.09881   1.00
C5       0.65473    0.24738    1.05802   1.00
H2       0.66694    0.27732    1.05523   1.00
H2       0.65849    0.23189    1.02973   1.00
C5       0.67851    0.22555    1.08927   1.00
C5       0.53936    0.23895    0.91776   1.00
C5       0.45681    0.13930    1.08150   1.00
H2       0.51413    0.25912    0.92088   1.00
H2       0.52984    0.21288    0.90074   1.00
H2       0.46305    0.16700    1.09744   1.00
H2       0.48386    0.12105    1.08261   1.00
H2       0.44371    0.05970    1.11886   1.00
H2       0.53765    0.30753    0.86871   1.00
H2       0.53799    0.26237    0.84088   1.00
C2       0.50267    0.35395    1.00023   1.00
C3       0.47680    0.33403    0.97511   1.00
O2       0.45959    0.35326    0.94421   1.00
C3       0.52588    0.33174    1.02617   1.00
H1       0.54523    0.34615    1.04647   1.00
C3a      0.47544    0.29287    0.97570   1.00
H1       0.45713    0.27798    0.95475   1.00
C3b      0.52536    0.29078    1.02582   1.00
C4       0.50008    0.27100    1.00041   1.00
O3       0.55463    0.22833    0.95449   1.00
C5       0.42059    0.36280    0.95331   1.00
H2       0.40310    0.33609    0.95986   1.00
C5       0.40352    0.38326    0.91769   1.00
H2       0.41916    0.38274    0.97897   1.00
H2       0.39530    0.36068    0.89581   1.00
H2       0.42729    0.40093    0.90429   1.00
C5       0.36820    0.40918    0.92762   1.00
H2       0.34609    0.39176    0.94371   1.00
C5       0.34937    0.42547    0.89023   1.00
H2       0.37702    0.43493    0.94562   1.00
C5       0.57164    0.25983    0.89537   1.00
H2       0.59385    0.23785    0.88641   1.00
H2       0.58641    0.28048    0.91568   1.00
C5       0.55576    0.28200    0.85967   1.00
C5       0.58984    0.29775    0.83501   1.00
H2       0.37955    0.05714    1.14391   1.00
C5       0.41486    0.06088    1.19738   1.00
H2       0.38311    0.10677    1.16567   1.00
C5       0.71956    0.21663    1.07333   1.00
H2       0.68107    0.24449    1.11649   1.00
H2       0.66318    0.19707    1.09698   1.00
C5       0.31024    0.44503    0.90047   1.00
H2       0.36969    0.44789    0.87644   1.00
H2       0.34406    0.40063    0.86876   1.00
H2       0.61118    0.31398    0.85469   1.00
H2       0.60548    0.27239    0.82024   1.00
C5       0.57398    0.32583    0.80374   1.00
H2       0.44550    0.04884    1.19271   1.00
H2       0.41563    0.08429    1.22099   1.00
H2       0.39460    0.03626    1.20685   1.00
H2       0.72360    0.23180    1.04401   1.00
H2       0.74243    0.22771    1.09478   1.00
H2       0.72302    0.18379    1.06939   1.00
H2       0.31313    0.46111    0.92943   1.00
H2       0.30206    0.46664    0.87655   1.00
H2       0.28657    0.42181    0.90299   1.00
H2       0.57442    0.35693    0.81552   1.00
H2       0.59301    0.32402    0.77653   1.00
H2       0.54277    0.31734    0.79602   1.00
C5       0.60061    0.42285    0.61782   1.00
H2       0.57645    0.40760    0.60255   1.00
H2       0.61252    0.40150    0.63910   1.00
C5       0.63216    0.43456    0.58806   1.00
C5       0.65903    0.39978    0.57877   1.00
H2       0.65008    0.45895    0.59985   1.00
O3       0.55206    0.54801    0.77000   1.00
C4       0.49959    0.49992    0.72900   1.00
C3c      0.52276    0.47379    0.70757   1.00
H1       0.54102    0.45303    0.72275   1.00
C3d      0.47558    0.52636    0.70865   1.00
C3       0.52323    0.47433    0.66646   1.00
O2       0.54287    0.44487    0.64752   1.00
C3       0.47654    0.52748    0.66773   1.00
H1       0.45867    0.54919    0.65343   1.00
C2       0.50012    0.50155    0.64561   1.00
C5       0.53991    0.58736    0.77121   1.00
H2       0.53824    0.59879    0.80162   1.00
H2       0.51068    0.59104    0.75734   1.00
C5       0.56982    0.61140    0.74871   1.00
H2       0.57230    0.59929    0.71863   1.00
H2       0.59881    0.60781    0.76302   1.00
C5       0.55802    0.65473    0.74738   1.00
H2       0.55523    0.66694    0.77732   1.00
H2       0.52973    0.65849    0.73189   1.00
C5       0.58927    0.67851    0.72555   1.00
C5       0.41776    0.53936    0.73895   1.00
C5       0.58150    0.45681    0.63930   1.00
H2       0.42088    0.51413    0.75912   1.00
H2       0.40074    0.52984    0.71288   1.00
H2       0.59744    0.46305    0.66700   1.00
H2       0.58261    0.48386    0.62105   1.00
H2       0.61886    0.44371    0.55970   1.00
H2       0.36871    0.53765    0.80753   1.00
H2       0.34088    0.53799    0.76237   1.00
C2       0.50023    0.50267    0.85395   1.00
C3       0.47511    0.47680    0.83403   1.00
O2       0.44421    0.45959    0.85326   1.00
C3       0.52617    0.52588    0.83174   1.00
H1       0.54647    0.54523    0.84615   1.00
C3a      0.47570    0.47544    0.79287   1.00
H1       0.45475    0.45713    0.77798   1.00
C3b      0.52582    0.52536    0.79078   1.00
C4       0.50041    0.50008    0.77100   1.00
O3       0.45449    0.55463    0.72833   1.00
C5       0.45331    0.42059    0.86280   1.00
H2       0.45986    0.40310    0.83609   1.00
C5       0.41769    0.40352    0.88326   1.00
H2       0.47897    0.41916    0.88274   1.00
H2       0.39581    0.39530    0.86068   1.00
H2       0.40429    0.42729    0.90093   1.00
C5       0.42762    0.36820    0.90918   1.00
H2       0.44371    0.34609    0.89176   1.00
C5       0.39023    0.34937    0.92547   1.00
H2       0.44562    0.37702    0.93493   1.00
C5       0.39537    0.57164    0.75983   1.00
H2       0.38641    0.59385    0.73785   1.00
H2       0.41568    0.58641    0.78048   1.00
C5       0.35967    0.55576    0.78200   1.00
C5       0.33501    0.58984    0.79775   1.00
H2       0.64391    0.37955    0.55714   1.00
C5       0.69738    0.41486    0.56088   1.00
H2       0.66567    0.38311    0.60677   1.00
C5       0.57333    0.71956    0.71663   1.00
H2       0.61649    0.68107    0.74449   1.00
H2       0.59698    0.66318    0.69707   1.00
C5       0.40047    0.31024    0.94503   1.00
H2       0.37644    0.36969    0.94789   1.00
H2       0.36876    0.34406    0.90063   1.00
H2       0.35469    0.61118    0.81398   1.00
H2       0.32024    0.60548    0.77239   1.00
C5       0.30374    0.57398    0.82583   1.00
H2       0.69271    0.44550    0.54884   1.00
H2       0.72099    0.41563    0.58429   1.00
H2       0.70685    0.39460    0.53626   1.00
H2       0.54401    0.72360    0.73180   1.00
H2       0.59478    0.74243    0.72771   1.00
H2       0.56939    0.72302    0.68379   1.00
H2       0.42943    0.31313    0.96111   1.00
H2       0.37655    0.30206    0.96664   1.00
H2       0.40299    0.28657    0.92181   1.00
H2       0.31552    0.57442    0.85693   1.00
H2       0.27653    0.59301    0.82402   1.00
H2       0.29602    0.54277    0.81734   1.00
C5       0.60061    1.07715    0.88218   1.00
H2       0.57645    1.09240    0.89745   1.00
H2       0.61252    1.09850    0.86090   1.00
C5       0.63216    1.06544    0.91194   1.00
C5       0.65903    1.10022    0.92123   1.00
H2       0.65008    1.04105    0.90015   1.00
O3       0.55206    0.95199    0.73000   1.00
C4       0.49959    1.00008    0.77100   1.00
C3c      0.52276    1.02621    0.79243   1.00
H1       0.54102    1.04697    0.77725   1.00
C3d      0.47558    0.97364    0.79135   1.00
C3       0.52323    1.02567    0.83354   1.00
O2       0.54287    1.05513    0.85248   1.00
C3       0.47654    0.97252    0.83227   1.00
H1       0.45867    0.95081    0.84657   1.00
C2       0.50012    0.99845    0.85439   1.00
C5       0.53991    0.91264    0.72879   1.00
H2       0.53824    0.90121    0.69838   1.00
H2       0.51068    0.90896    0.74266   1.00
C5       0.56982    0.88860    0.75129   1.00
H2       0.57230    0.90071    0.78137   1.00
H2       0.59881    0.89219    0.73698   1.00
C5       0.55802    0.84527    0.75262   1.00
H2       0.55523    0.83306    0.72268   1.00
H2       0.52973    0.84151    0.76811   1.00
C5       0.58927    0.82149    0.77445   1.00
C5       0.41776    0.96064    0.76105   1.00
C5       0.58150    1.04319    0.86070   1.00
H2       0.42088    0.98587    0.74088   1.00
H2       0.40074    0.97016    0.78712   1.00
H2       0.59744    1.03695    0.83300   1.00
H2       0.58261    1.01614    0.87895   1.00
H2       0.61886    1.05629    0.94030   1.00
H2       0.36871    0.96235    0.69247   1.00
H2       0.34088    0.96201    0.73763   1.00
C2       0.50023    0.99733    0.64605   1.00
C3       0.47511    1.02320    0.66597   1.00
O2       0.44421    1.04041    0.64674   1.00
C3       0.52617    0.97412    0.66826   1.00
H1       0.54647    0.95477    0.65385   1.00
C3a      0.47570    1.02456    0.70713   1.00
H1       0.45475    1.04287    0.72202   1.00
C3b      0.52582    0.97464    0.70922   1.00
C4       0.50041    0.99992    0.72900   1.00
O3       0.45449    0.94537    0.77167   1.00
C5       0.45331    1.07941    0.63720   1.00
H2       0.45986    1.09690    0.66391   1.00
C5       0.41769    1.09648    0.61674   1.00
H2       0.47897    1.08084    0.61726   1.00
H2       0.39581    1.10470    0.63932   1.00
H2       0.40429    1.07271    0.59907   1.00
C5       0.42762    1.13180    0.59082   1.00
H2       0.44371    1.15391    0.60824   1.00
C5       0.39023    1.15063    0.57453   1.00
H2       0.44562    1.12298    0.56507   1.00
C5       0.39537    0.92836    0.74017   1.00
H2       0.38641    0.90615    0.76215   1.00
H2       0.41568    0.91359    0.71952   1.00
C5       0.35967    0.94424    0.71800   1.00
C5       0.33501    0.91016    0.70225   1.00
H2       0.64391    1.12045    0.94286   1.00
C5       0.69738    1.08514    0.93912   1.00
H2       0.66567    1.11689    0.89323   1.00
C5       0.57333    0.78044    0.78337   1.00
H2       0.61649    0.81893    0.75551   1.00
H2       0.59698    0.83682    0.80293   1.00
C5       0.40047    1.18976    0.55497   1.00
H2       0.37644    1.13031    0.55211   1.00
H2       0.36876    1.15594    0.59937   1.00
H2       0.35469    0.88882    0.68602   1.00
H2       0.32024    0.89452    0.72761   1.00
C5       0.30374    0.92602    0.67417   1.00
H2       0.69271    1.05450    0.95116   1.00
H2       0.72099    1.08437    0.91571   1.00
H2       0.70685    1.10540    0.96374   1.00
H2       0.54401    0.77640    0.76820   1.00
H2       0.59478    0.75757    0.77229   1.00
H2       0.56939    0.77698    0.81621   1.00
H2       0.42943    1.18687    0.53889   1.00
H2       0.37655    1.19794    0.53336   1.00
H2       0.40299    1.21343    0.57819   1.00
H2       0.31552    0.92558    0.64307   1.00
H2       0.27653    0.90699    0.67598   1.00
H2       0.29602    0.95723    0.68266   1.00
C5       0.57715    1.38218    0.60061   1.00
H2       0.59240    1.39745    0.57645   1.00
H2       0.59850    1.36090    0.61252   1.00
C5       0.56544    1.41194    0.63216   1.00
C5       0.60022    1.42123    0.65903   1.00
H2       0.54105    1.40015    0.65008   1.00
O3       0.45199    1.23000    0.55206   1.00
C4       0.50008    1.27100    0.49959   1.00
C3c      0.52621    1.29243    0.52276   1.00
H1       0.54697    1.27725    0.54102   1.00
C3d      0.47364    1.29135    0.47558   1.00
C3       0.52567    1.33354    0.52323   1.00
O2       0.55513    1.35248    0.54287   1.00
C3       0.47252    1.33227    0.47654   1.00
H1       0.45081    1.34657    0.45867   1.00
C2       0.49845    1.35439    0.50012   1.00
C5       0.41264    1.22879    0.53991   1.00
H2       0.40121    1.19838    0.53824   1.00
H2       0.40896    1.24266    0.51068   1.00
C5       0.38860    1.25129    0.56982   1.00
H2       0.40071    1.28137    0.57230   1.00
H2       0.39219    1.23698    0.59881   1.00
C5       0.34527    1.25262    0.55802   1.00
H2       0.33306    1.22268    0.55523   1.00
H2       0.34151    1.26811    0.52973   1.00
C5       0.32149    1.27445    0.58927   1.00
C5       0.46064    1.26105    0.41776   1.00
C5       0.54319    1.36070    0.58150   1.00
H2       0.48587    1.24088    0.42088   1.00
H2       0.47016    1.28712    0.40074   1.00
H2       0.53695    1.33300    0.59744   1.00
H2       0.51614    1.37895    0.58261   1.00
H2       0.55629    1.44030    0.61886   1.00
H2       0.46235    1.19247    0.36871   1.00
H2       0.46201    1.23763    0.34088   1.00
C2       0.49733    1.14605    0.50023   1.00
C3       0.52320    1.16597    0.47511   1.00
O2       0.54041    1.14674    0.44421   1.00
C3       0.47412    1.16826    0.52617   1.00
H1       0.45477    1.15385    0.54647   1.00
C3a      0.52456    1.20713    0.47570   1.00
H1       0.54287    1.22202    0.45475   1.00
C3b      0.47464    1.20922    0.52582   1.00
C4       0.49992    1.22900    0.50041   1.00
O3       0.44537    1.27167    0.45449   1.00
C5       0.57941    1.13720    0.45331   1.00
H2       0.59690    1.16391    0.45986   1.00
C5       0.59648    1.11674    0.41769   1.00
H2       0.58084    1.11726    0.47897   1.00
H2       0.60470    1.13932    0.39581   1.00
H2       0.57271    1.09907    0.40429   1.00
C5       0.63180    1.09082    0.42762   1.00
H2       0.65391    1.10824    0.44371   1.00
C5       0.65063    1.07453    0.39023   1.00
H2       0.62298    1.06507    0.44562   1.00
C5       0.42836    1.24017    0.39537   1.00
H2       0.40615    1.26215    0.38641   1.00
H2       0.41359    1.21952    0.41568   1.00
C5       0.44424    1.21800    0.35967   1.00
C5       0.41016    1.20225    0.33501   1.00
H2       0.62045    1.44286    0.64391   1.00
C5       0.58514    1.43912    0.69738   1.00
H2       0.61689    1.39323    0.66567   1.00
C5       0.28044    1.28337    0.57333   1.00
H2       0.31893    1.25551    0.61649   1.00
H2       0.33682    1.30293    0.59698   1.00
C5       0.68976    1.05497    0.40047   1.00
H2       0.63031    1.05211    0.37644   1.00
H2       0.65594    1.09937    0.36876   1.00
H2       0.38882    1.18602    0.35469   1.00
H2       0.39452    1.22761    0.32024   1.00
C5       0.42602    1.17417    0.30374   1.00
H2       0.55450    1.45116    0.69271   1.00
H2       0.58437    1.41571    0.72099   1.00
H2       0.60540    1.46374    0.70685   1.00
H2       0.27640    1.26820    0.54401   1.00
H2       0.25757    1.27229    0.59478   1.00
H2       0.27698    1.31621    0.56939   1.00
H2       0.68687    1.03889    0.42943   1.00
H2       0.69794    1.03336    0.37655   1.00
H2       0.71343    1.07819    0.40299   1.00
H2       0.42558    1.14307    0.31552   1.00
H2       0.40699    1.17598    0.27653   1.00
H2       0.45723    1.18266    0.29602   1.00
C5       0.11782    1.10061    0.42285   1.00
H2       0.10255    1.07645    0.40760   1.00
H2       0.13910    1.11252    0.40150   1.00
C5       0.08806    1.13216    0.43456   1.00
C5       0.07877    1.15903    0.39978   1.00
H2       0.09985    1.15008    0.45895   1.00
O3       0.27000    1.05206    0.54801   1.00
C4       0.22900    0.99959    0.49992   1.00
C3c      0.20757    1.02276    0.47379   1.00
H1       0.22275    1.04102    0.45303   1.00
C3d      0.20865    0.97558    0.52636   1.00
C3       0.16646    1.02323    0.47433   1.00
O2       0.14752    1.04287    0.44487   1.00
C3       0.16773    0.97654    0.52748   1.00
H1       0.15343    0.95867    0.54919   1.00
C2       0.14561    1.00012    0.50155   1.00
C5       0.27121    1.03991    0.58736   1.00
H2       0.30162    1.03824    0.59879   1.00
H2       0.25734    1.01068    0.59104   1.00
C5       0.24871    1.06982    0.61140   1.00
H2       0.21863    1.07230    0.59929   1.00
H2       0.26302    1.09881    0.60781   1.00
C5       0.24738    1.05802    0.65473   1.00
H2       0.27732    1.05523    0.66694   1.00
H2       0.23189    1.02973    0.65849   1.00
C5       0.22555    1.08927    0.67851   1.00
C5       0.23895    0.91776    0.53936   1.00
C5       0.13930    1.08150    0.45681   1.00
H2       0.25912    0.92088    0.51413   1.00
H2       0.21288    0.90074    0.52984   1.00
H2       0.16700    1.09744    0.46305   1.00
H2       0.12105    1.08261    0.48386   1.00
H2       0.05970    1.11886    0.44371   1.00
H2       0.30753    0.86871    0.53765   1.00
H2       0.26237    0.84088    0.53799   1.00
C2       0.35395    1.00023    0.50267   1.00
C3       0.33403    0.97511    0.47680   1.00
O2       0.35326    0.94421    0.45959   1.00
C3       0.33174    1.02617    0.52588   1.00
H1       0.34615    1.04647    0.54523   1.00
C3a      0.29287    0.97570    0.47544   1.00
H1       0.27798    0.95475    0.45713   1.00
C3b      0.29078    1.02582    0.52536   1.00
C4       0.27100    1.00041    0.50008   1.00
O3       0.22833    0.95449    0.55463   1.00
C5       0.36280    0.95331    0.42059   1.00
H2       0.33609    0.95986    0.40310   1.00
C5       0.38326    0.91769    0.40352   1.00
H2       0.38274    0.97897    0.41916   1.00
H2       0.36068    0.89581    0.39530   1.00
H2       0.40093    0.90429    0.42729   1.00
C5       0.40918    0.92762    0.36820   1.00
H2       0.39176    0.94371    0.34609   1.00
C5       0.42547    0.89023    0.34937   1.00
H2       0.43493    0.94562    0.37702   1.00
C5       0.25983    0.89537    0.57164   1.00
H2       0.23785    0.88641    0.59385   1.00
H2       0.28048    0.91568    0.58641   1.00
C5       0.28200    0.85967    0.55576   1.00
C5       0.29775    0.83501    0.58984   1.00
H2       0.05714    1.14391    0.37955   1.00
C5       0.06088    1.19738    0.41486   1.00
H2       0.10677    1.16567    0.38311   1.00
C5       0.21663    1.07333    0.71956   1.00
H2       0.24449    1.11649    0.68107   1.00
H2       0.19707    1.09698    0.66318   1.00
C5       0.44503    0.90047    0.31024   1.00
H2       0.44789    0.87644    0.36969   1.00
H2       0.40063    0.86876    0.34406   1.00
H2       0.31398    0.85469    0.61118   1.00
H2       0.27239    0.82024    0.60548   1.00
C5       0.32583    0.80374    0.57398   1.00
H2       0.04884    1.19271    0.44550   1.00
H2       0.08429    1.22099    0.41563   1.00
H2       0.03626    1.20685    0.39460   1.00
H2       0.23180    1.04401    0.72360   1.00
H2       0.22771    1.09478    0.74243   1.00
H2       0.18379    1.06939    0.72302   1.00
H2       0.46111    0.92943    0.31313   1.00
H2       0.46664    0.87655    0.30206   1.00
H2       0.42181    0.90299    0.28657   1.00
H2       0.35693    0.81552    0.57442   1.00
H2       0.32402    0.77653    0.59301   1.00
H2       0.31734    0.79602    0.54277   1.00
C5       0.88218    1.10061    0.57715   1.00
H2       0.89745    1.07645    0.59240   1.00
H2       0.86090    1.11252    0.59850   1.00
C5       0.91194    1.13216    0.56544   1.00
C5       0.92123    1.15903    0.60022   1.00
H2       0.90015    1.15008    0.54105   1.00
O3       0.73000    1.05206    0.45199   1.00
C4       0.77100    0.99959    0.50008   1.00
C3c      0.79243    1.02276    0.52621   1.00
H1       0.77725    1.04102    0.54697   1.00
C3d      0.79135    0.97558    0.47364   1.00
C3       0.83354    1.02323    0.52567   1.00
O2       0.85248    1.04287    0.55513   1.00
C3       0.83227    0.97654    0.47252   1.00
H1       0.84657    0.95867    0.45081   1.00
C2       0.85439    1.00012    0.49845   1.00
C5       0.72879    1.03991    0.41264   1.00
H2       0.69838    1.03824    0.40121   1.00
H2       0.74266    1.01068    0.40896   1.00
C5       0.75129    1.06982    0.38860   1.00
H2       0.78137    1.07230    0.40071   1.00
H2       0.73698    1.09881    0.39219   1.00
C5       0.75262    1.05802    0.34527   1.00
H2       0.72268    1.05523    0.33306   1.00
H2       0.76811    1.02973    0.34151   1.00
C5       0.77445    1.08927    0.32149   1.00
C5       0.76105    0.91776    0.46064   1.00
C5       0.86070    1.08150    0.54319   1.00
H2       0.74088    0.92088    0.48587   1.00
H2       0.78712    0.90074    0.47016   1.00
H2       0.83300    1.09744    0.53695   1.00
H2       0.87895    1.08261    0.51614   1.00
H2       0.94030    1.11886    0.55629   1.00
H2       0.69247    0.86871    0.46235   1.00
H2       0.73763    0.84088    0.46201   1.00
C2       0.64605    1.00023    0.49733   1.00
C3       0.66597    0.97511    0.52320   1.00
O2       0.64674    0.94421    0.54041   1.00
C3       0.66826    1.02617    0.47412   1.00
H1       0.65385    1.04647    0.45477   1.00
C3a      0.70713    0.97570    0.52456   1.00
H1       0.72202    0.95475    0.54287   1.00
C3b      0.70922    1.02582    0.47464   1.00
C4       0.72900    1.00041    0.49992   1.00
O3       0.77167    0.95449    0.44537   1.00
C5       0.63720    0.95331    0.57941   1.00
H2       0.66391    0.95986    0.59690   1.00
C5       0.61674    0.91769    0.59648   1.00
H2       0.61726    0.97897    0.58084   1.00
H2       0.63932    0.89581    0.60470   1.00
H2       0.59907    0.90429    0.57271   1.00
C5       0.59082    0.92762    0.63180   1.00
H2       0.60824    0.94371    0.65391   1.00
C5       0.57453    0.89023    0.65063   1.00
H2       0.56507    0.94562    0.62298   1.00
C5       0.74017    0.89537    0.42836   1.00
H2       0.76215    0.88641    0.40615   1.00
H2       0.71952    0.91568    0.41359   1.00
C5       0.71800    0.85967    0.44424   1.00
C5       0.70225    0.83501    0.41016   1.00
H2       0.94286    1.14391    0.62045   1.00
C5       0.93912    1.19738    0.58514   1.00
H2       0.89323    1.16567    0.61689   1.00
C5       0.78337    1.07333    0.28044   1.00
H2       0.75551    1.11649    0.31893   1.00
H2       0.80293    1.09698    0.33682   1.00
C5       0.55497    0.90047    0.68976   1.00
H2       0.55211    0.87644    0.63031   1.00
H2       0.59937    0.86876    0.65594   1.00
H2       0.68602    0.85469    0.38882   1.00
H2       0.72761    0.82024    0.39452   1.00
C5       0.67417    0.80374    0.42602   1.00
H2       0.95116    1.19271    0.55450   1.00
H2       0.91571    1.22099    0.58437   1.00
H2       0.96374    1.20685    0.60540   1.00
H2       0.76820    1.04401    0.27640   1.00
H2       0.77229    1.09478    0.25757   1.00
H2       0.81621    1.06939    0.27698   1.00
H2       0.53889    0.92943    0.68687   1.00
H2       0.53336    0.87655    0.69794   1.00
H2       0.57819    0.90299    0.71343   1.00
H2       0.64307    0.81552    0.42558   1.00
H2       0.67598    0.77653    0.40699   1.00
H2       0.68266    0.79602    0.45723   1.00
C5       0.42285    0.61782    0.60061   1.00
H2       0.40760    0.60255    0.57645   1.00
H2       0.40150    0.63910    0.61252   1.00
C5       0.43456    0.58806    0.63216   1.00
C5       0.39978    0.57877    0.65903   1.00
H2       0.45895    0.59985    0.65008   1.00
O3       0.54801    0.77000    0.55206   1.00
C4       0.49992    0.72900    0.49959   1.00
C3c      0.47379    0.70757    0.52276   1.00
H1       0.45303    0.72275    0.54102   1.00
C3d      0.52636    0.70865    0.47558   1.00
C3       0.47433    0.66646    0.52323   1.00
O2       0.44487    0.64752    0.54287   1.00
C3       0.52748    0.66773    0.47654   1.00
H1       0.54919    0.65343    0.45867   1.00
C2       0.50155    0.64561    0.50012   1.00
C5       0.58736    0.77121    0.53991   1.00
H2       0.59879    0.80162    0.53824   1.00
H2       0.59104    0.75734    0.51068   1.00
C5       0.61140    0.74871    0.56982   1.00
H2       0.59929    0.71863    0.57230   1.00
H2       0.60781    0.76302    0.59881   1.00
C5       0.65473    0.74738    0.55802   1.00
H2       0.66694    0.77732    0.55523   1.00
H2       0.65849    0.73189    0.52973   1.00
C5       0.67851    0.72555    0.58927   1.00
C5       0.53936    0.73895    0.41776   1.00
C5       0.45681    0.63930    0.58150   1.00
H2       0.51413    0.75912    0.42088   1.00
H2       0.52984    0.71288    0.40074   1.00
H2       0.46305    0.66700    0.59744   1.00
H2       0.48386    0.62105    0.58261   1.00
H2       0.44371    0.55970    0.61886   1.00
H2       0.53765    0.80753    0.36871   1.00
H2       0.53799    0.76237    0.34088   1.00
C2       0.50267    0.85395    0.50023   1.00
C3       0.47680    0.83403    0.47511   1.00
O2       0.45959    0.85326    0.44421   1.00
C3       0.52588    0.83174    0.52617   1.00
H1       0.54523    0.84615    0.54647   1.00
C3a      0.47544    0.79287    0.47570   1.00
H1       0.45713    0.77798    0.45475   1.00
C3b      0.52536    0.79078    0.52582   1.00
C4       0.50008    0.77100    0.50041   1.00
O3       0.55463    0.72833    0.45449   1.00
C5       0.42059    0.86280    0.45331   1.00
H2       0.40310    0.83609    0.45986   1.00
C5       0.40352    0.88326    0.41769   1.00
H2       0.41916    0.88274    0.47897   1.00
H2       0.39530    0.86068    0.39581   1.00
H2       0.42729    0.90093    0.40429   1.00
C5       0.36820    0.90918    0.42762   1.00
H2       0.34609    0.89176    0.44371   1.00
C5       0.34937    0.92547    0.39023   1.00
H2       0.37702    0.93493    0.44562   1.00
C5       0.57164    0.75983    0.39537   1.00
H2       0.59385    0.73785    0.38641   1.00
H2       0.58641    0.78048    0.41568   1.00
C5       0.55576    0.78200    0.35967   1.00
C5       0.58984    0.79775    0.33501   1.00
H2       0.37955    0.55714    0.64391   1.00
C5       0.41486    0.56088    0.69738   1.00
H2       0.38311    0.60677    0.66567   1.00
C5       0.71956    0.71663    0.57333   1.00
H2       0.68107    0.74449    0.61649   1.00
H2       0.66318    0.69707    0.59698   1.00
C5       0.31024    0.94503    0.40047   1.00
H2       0.36969    0.94789    0.37644   1.00
H2       0.34406    0.90063    0.36876   1.00
H2       0.61118    0.81398    0.35469   1.00
H2       0.60548    0.77239    0.32024   1.00
C5       0.57398    0.82583    0.30374   1.00
H2       0.44550    0.54884    0.69271   1.00
H2       0.41563    0.58429    0.72099   1.00
H2       0.39460    0.53626    0.70685   1.00
H2       0.72360    0.73180    0.54401   1.00
H2       0.74243    0.72771    0.59478   1.00
H2       0.72302    0.68379    0.56939   1.00
H2       0.31313    0.96111    0.42943   1.00
H2       0.30206    0.96664    0.37655   1.00
H2       0.28657    0.92181    0.40299   1.00
H2       0.57442    0.85693    0.31552   1.00
H2       0.59301    0.82402    0.27653   1.00
H2       0.54277    0.81734    0.29602   1.00
C5       0.60061    0.92285    0.11782   1.00
H2       0.57645    0.90760    0.10255   1.00
H2       0.61252    0.90150    0.13910   1.00
C5       0.63216    0.93456    0.08806   1.00
C5       0.65903    0.89978    0.07877   1.00
H2       0.65008    0.95895    0.09985   1.00
O3       0.55206    1.04801    0.27000   1.00
C4       0.49959    0.99992    0.22900   1.00
C3c      0.52276    0.97379    0.20757   1.00
H1       0.54102    0.95303    0.22275   1.00
C3d      0.47558    1.02636    0.20865   1.00
C3       0.52323    0.97433    0.16646   1.00
O2       0.54287    0.94487    0.14752   1.00
C3       0.47654    1.02748    0.16773   1.00
H1       0.45867    1.04919    0.15343   1.00
C2       0.50012    1.00155    0.14561   1.00
C5       0.53991    1.08736    0.27121   1.00
H2       0.53824    1.09879    0.30162   1.00
H2       0.51068    1.09104    0.25734   1.00
C5       0.56982    1.11140    0.24871   1.00
H2       0.57230    1.09929    0.21863   1.00
H2       0.59881    1.10781    0.26302   1.00
C5       0.55802    1.15473    0.24738   1.00
H2       0.55523    1.16694    0.27732   1.00
H2       0.52973    1.15849    0.23189   1.00
C5       0.58927    1.17851    0.22555   1.00
C5       0.41776    1.03936    0.23895   1.00
C5       0.58150    0.95681    0.13930   1.00
H2       0.42088    1.01413    0.25912   1.00
H2       0.40074    1.02984    0.21288   1.00
H2       0.59744    0.96305    0.16700   1.00
H2       0.58261    0.98386    0.12105   1.00
H2       0.61886    0.94371    0.05970   1.00
H2       0.36871    1.03765    0.30753   1.00
H2       0.34088    1.03799    0.26237   1.00
C2       0.50023    1.00267    0.35395   1.00
C3       0.47511    0.97680    0.33403   1.00
O2       0.44421    0.95959    0.35326   1.00
C3       0.52617    1.02588    0.33174   1.00
H1       0.54647    1.04523    0.34615   1.00
C3a      0.47570    0.97544    0.29287   1.00
H1       0.45475    0.95713    0.27798   1.00
C3b      0.52582    1.02536    0.29078   1.00
C4       0.50041    1.00008    0.27100   1.00
O3       0.45449    1.05463    0.22833   1.00
C5       0.45331    0.92059    0.36280   1.00
H2       0.45986    0.90310    0.33609   1.00
C5       0.41769    0.90352    0.38326   1.00
H2       0.47897    0.91916    0.38274   1.00
H2       0.39581    0.89530    0.36068   1.00
H2       0.40429    0.92729    0.40093   1.00
C5       0.42762    0.86820    0.40918   1.00
H2       0.44371    0.84609    0.39176   1.00
C5       0.39023    0.84937    0.42547   1.00
H2       0.44562    0.87702    0.43493   1.00
C5       0.39537    1.07164    0.25983   1.00
H2       0.38641    1.09385    0.23785   1.00
H2       0.41568    1.08641    0.28048   1.00
C5       0.35967    1.05576    0.28200   1.00
C5       0.33501    1.08984    0.29775   1.00
H2       0.64391    0.87955    0.05714   1.00
C5       0.69738    0.91486    0.06088   1.00
H2       0.66567    0.88311    0.10677   1.00
C5       0.57333    1.21956    0.21663   1.00
H2       0.61649    1.18107    0.24449   1.00
H2       0.59698    1.16318    0.19707   1.00
C5       0.40047    0.81024    0.44503   1.00
H2       0.37644    0.86969    0.44789   1.00
H2       0.36876    0.84406    0.40063   1.00
H2       0.35469    1.11118    0.31398   1.00
H2       0.32024    1.10548    0.27239   1.00
C5       0.30374    1.07398    0.32583   1.00
H2       0.69271    0.94550    0.04884   1.00
H2       0.72099    0.91563    0.08429   1.00
H2       0.70685    0.89460    0.03626   1.00
H2       0.54401    1.22360    0.23180   1.00
H2       0.59478    1.24243    0.22771   1.00
H2       0.56939    1.22302    0.18379   1.00
H2       0.42943    0.81313    0.46111   1.00
H2       0.37655    0.80206    0.46664   1.00
H2       0.40299    0.78657    0.42181   1.00
H2       0.31552    1.07442    0.35693   1.00
H2       0.27653    1.09301    0.32402   1.00
H2       0.29602    1.04277    0.31734   1.00
C5       1.10061    0.57715    0.88218   1.00
H2       1.07645    0.59240    0.89745   1.00
H2       1.11252    0.59850    0.86090   1.00
C5       1.13216    0.56544    0.91194   1.00
C5       1.15903    0.60022    0.92123   1.00
H2       1.15008    0.54105    0.90015   1.00
O3       1.05206    0.45199    0.73000   1.00
C4       0.99959    0.50008    0.77100   1.00
C3c      1.02276    0.52621    0.79243   1.00
H1       1.04102    0.54697    0.77725   1.00
C3d      0.97558    0.47364    0.79135   1.00
C3       1.02323    0.52567    0.83354   1.00
O2       1.04287    0.55513    0.85248   1.00
C3       0.97654    0.47252    0.83227   1.00
H1       0.95867    0.45081    0.84657   1.00
C2       1.00012    0.49845    0.85439   1.00
C5       1.03991    0.41264    0.72879   1.00
H2       1.03824    0.40121    0.69838   1.00
H2       1.01068    0.40896    0.74266   1.00
C5       1.06982    0.38860    0.75129   1.00
H2       1.07230    0.40071    0.78137   1.00
H2       1.09881    0.39219    0.73698   1.00
C5       1.05802    0.34527    0.75262   1.00
H2       1.05523    0.33306    0.72268   1.00
H2       1.02973    0.34151    0.76811   1.00
C5       1.08927    0.32149    0.77445   1.00
C5       0.91776    0.46064    0.76105   1.00
C5       1.08150    0.54319    0.86070   1.00
H2       0.92088    0.48587    0.74088   1.00
H2       0.90074    0.47016    0.78712   1.00
H2       1.09744    0.53695    0.83300   1.00
H2       1.08261    0.51614    0.87895   1.00
H2       1.11886    0.55629    0.94030   1.00
H2       0.86871    0.46235    0.69247   1.00
H2       0.84088    0.46201    0.73763   1.00
C2       1.00023    0.49733    0.64605   1.00
C3       0.97511    0.52320    0.66597   1.00
O2       0.94421    0.54041    0.64674   1.00
C3       1.02617    0.47412    0.66826   1.00
H1       1.04647    0.45477    0.65385   1.00
C3a      0.97570    0.52456    0.70713   1.00
H1       0.95475    0.54287    0.72202   1.00
C3b      1.02582    0.47464    0.70922   1.00
C4       1.00041    0.49992    0.72900   1.00
O3       0.95449    0.44537    0.77167   1.00
C5       0.95331    0.57941    0.63720   1.00
H2       0.95986    0.59690    0.66391   1.00
C5       0.91769    0.59648    0.61674   1.00
H2       0.97897    0.58084    0.61726   1.00
H2       0.89581    0.60470    0.63932   1.00
H2       0.90429    0.57271    0.59907   1.00
C5       0.92762    0.63180    0.59082   1.00
H2       0.94371    0.65391    0.60824   1.00
C5       0.89023    0.65063    0.57453   1.00
H2       0.94562    0.62298    0.56507   1.00
C5       0.89537    0.42836    0.74017   1.00
H2       0.88641    0.40615    0.76215   1.00
H2       0.91568    0.41359    0.71952   1.00
C5       0.85967    0.44424    0.71800   1.00
C5       0.83501    0.41016    0.70225   1.00
H2       1.14391    0.62045    0.94286   1.00
C5       1.19738    0.58514    0.93912   1.00
H2       1.16567    0.61689    0.89323   1.00
C5       1.07333    0.28044    0.78337   1.00
H2       1.11649    0.31893    0.75551   1.00
H2       1.09698    0.33682    0.80293   1.00
C5       0.90047    0.68976    0.55497   1.00
H2       0.87644    0.63031    0.55211   1.00
H2       0.86876    0.65594    0.59937   1.00
H2       0.85469    0.38882    0.68602   1.00
H2       0.82024    0.39452    0.72761   1.00
C5       0.80374    0.42602    0.67417   1.00
H2       1.19271    0.55450    0.95116   1.00
H2       1.22099    0.58437    0.91571   1.00
H2       1.20685    0.60540    0.96374   1.00
H2       1.04401    0.27640    0.76820   1.00
H2       1.09478    0.25757    0.77229   1.00
H2       1.06939    0.27698    0.81621   1.00
H2       0.92943    0.68687    0.53889   1.00
H2       0.87655    0.69794    0.53336   1.00
H2       0.90299    0.71343    0.57819   1.00
H2       0.81552    0.42558    0.64307   1.00
H2       0.77653    0.40699    0.67598   1.00
H2       0.79602    0.45723    0.68266   1.00
C5       1.07715    0.88218    0.60061   1.00
H2       1.09240    0.89745    0.57645   1.00
H2       1.09850    0.86090    0.61252   1.00
C5       1.06544    0.91194    0.63216   1.00
C5       1.10022    0.92123    0.65903   1.00
H2       1.04105    0.90015    0.65008   1.00
O3       0.95199    0.73000    0.55206   1.00
C4       1.00008    0.77100    0.49959   1.00
C3c      1.02621    0.79243    0.52276   1.00
H1       1.04697    0.77725    0.54102   1.00
C3d      0.97364    0.79135    0.47558   1.00
C3       1.02567    0.83354    0.52323   1.00
O2       1.05513    0.85248    0.54287   1.00
C3       0.97252    0.83227    0.47654   1.00
H1       0.95081    0.84657    0.45867   1.00
C2       0.99845    0.85439    0.50012   1.00
C5       0.91264    0.72879    0.53991   1.00
H2       0.90121    0.69838    0.53824   1.00
H2       0.90896    0.74266    0.51068   1.00
C5       0.88860    0.75129    0.56982   1.00
H2       0.90071    0.78137    0.57230   1.00
H2       0.89219    0.73698    0.59881   1.00
C5       0.84527    0.75262    0.55802   1.00
H2       0.83306    0.72268    0.55523   1.00
H2       0.84151    0.76811    0.52973   1.00
C5       0.82149    0.77445    0.58927   1.00
C5       0.96064    0.76105    0.41776   1.00
C5       1.04319    0.86070    0.58150   1.00
H2       0.98587    0.74088    0.42088   1.00
H2       0.97016    0.78712    0.40074   1.00
H2       1.03695    0.83300    0.59744   1.00
H2       1.01614    0.87895    0.58261   1.00
H2       1.05629    0.94030    0.61886   1.00
H2       0.96235    0.69247    0.36871   1.00
H2       0.96201    0.73763    0.34088   1.00
C2       0.99733    0.64605    0.50023   1.00
C3       1.02320    0.66597    0.47511   1.00
O2       1.04041    0.64674    0.44421   1.00
C3       0.97412    0.66826    0.52617   1.00
H1       0.95477    0.65385    0.54647   1.00
C3a      1.02456    0.70713    0.47570   1.00
H1       1.04287    0.72202    0.45475   1.00
C3b      0.97464    0.70922    0.52582   1.00
C4       0.99992    0.72900    0.50041   1.00
O3       0.94537    0.77167    0.45449   1.00
C5       1.07941    0.63720    0.45331   1.00
H2       1.09690    0.66391    0.45986   1.00
C5       1.09648    0.61674    0.41769   1.00
H2       1.08084    0.61726    0.47897   1.00
H2       1.10470    0.63932    0.39581   1.00
H2       1.07271    0.59907    0.40429   1.00
C5       1.13180    0.59082    0.42762   1.00
H2       1.15391    0.60824    0.44371   1.00
C5       1.15063    0.57453    0.39023   1.00
H2       1.12298    0.56507    0.44562   1.00
C5       0.92836    0.74017    0.39537   1.00
H2       0.90615    0.76215    0.38641   1.00
H2       0.91359    0.71952    0.41568   1.00
C5       0.94424    0.71800    0.35967   1.00
C5       0.91016    0.70225    0.33501   1.00
H2       1.12045    0.94286    0.64391   1.00
C5       1.08514    0.93912    0.69738   1.00
H2       1.11689    0.89323    0.66567   1.00
C5       0.78044    0.78337    0.57333   1.00
H2       0.81893    0.75551    0.61649   1.00
H2       0.83682    0.80293    0.59698   1.00
C5       1.18976    0.55497    0.40047   1.00
H2       1.13031    0.55211    0.37644   1.00
H2       1.15594    0.59937    0.36876   1.00
H2       0.88882    0.68602    0.35469   1.00
H2       0.89452    0.72761    0.32024   1.00
C5       0.92602    0.67417    0.30374   1.00
H2       1.05450    0.95116    0.69271   1.00
H2       1.08437    0.91571    0.72099   1.00
H2       1.10540    0.96374    0.70685   1.00
H2       0.77640    0.76820    0.54401   1.00
H2       0.75757    0.77229    0.59478   1.00
H2       0.77698    0.81621    0.56939   1.00
H2       1.18687    0.53889    0.42943   1.00
H2       1.19794    0.53336    0.37655   1.00
H2       1.21343    0.57819    0.40299   1.00
H2       0.92558    0.64307    0.31552   1.00
H2       0.90699    0.67598    0.27653   1.00
H2       0.95723    0.68266    0.29602   1.00
C5       0.61782    0.60061    0.42285   1.00
H2       0.60255    0.57645    0.40760   1.00
H2       0.63910    0.61252    0.40150   1.00
C5       0.58806    0.63216    0.43456   1.00
C5       0.57877    0.65903    0.39978   1.00
H2       0.59985    0.65008    0.45895   1.00
O3       0.77000    0.55206    0.54801   1.00
C4       0.72900    0.49959    0.49992   1.00
C3c      0.70757    0.52276    0.47379   1.00
H1       0.72275    0.54102    0.45303   1.00
C3d      0.70865    0.47558    0.52636   1.00
C3       0.66646    0.52323    0.47433   1.00
O2       0.64752    0.54287    0.44487   1.00
C3       0.66773    0.47654    0.52748   1.00
H1       0.65343    0.45867    0.54919   1.00
C2       0.64561    0.50012    0.50155   1.00
C5       0.77121    0.53991    0.58736   1.00
H2       0.80162    0.53824    0.59879   1.00
H2       0.75734    0.51068    0.59104   1.00
C5       0.74871    0.56982    0.61140   1.00
H2       0.71863    0.57230    0.59929   1.00
H2       0.76302    0.59881    0.60781   1.00
C5       0.74738    0.55802    0.65473   1.00
H2       0.77732    0.55523    0.66694   1.00
H2       0.73189    0.52973    0.65849   1.00
C5       0.72555    0.58927    0.67851   1.00
C5       0.73895    0.41776    0.53936   1.00
C5       0.63930    0.58150    0.45681   1.00
H2       0.75912    0.42088    0.51413   1.00
H2       0.71288    0.40074    0.52984   1.00
H2       0.66700    0.59744    0.46305   1.00
H2       0.62105    0.58261    0.48386   1.00
H2       0.55970    0.61886    0.44371   1.00
H2       0.80753    0.36871    0.53765   1.00
H2       0.76237    0.34088    0.53799   1.00
C2       0.85395    0.50023    0.50267   1.00
C3       0.83403    0.47511    0.47680   1.00
O2       0.85326    0.44421    0.45959   1.00
C3       0.83174    0.52617    0.52588   1.00
H1       0.84615    0.54647    0.54523   1.00
C3a      0.79287    0.47570    0.47544   1.00
H1       0.77798    0.45475    0.45713   1.00
C3b      0.79078    0.52582    0.52536   1.00
C4       0.77100    0.50041    0.50008   1.00
O3       0.72833    0.45449    0.55463   1.00
C5       0.86280    0.45331    0.42059   1.00
H2       0.83609    0.45986    0.40310   1.00
C5       0.88326    0.41769    0.40352   1.00
H2       0.88274    0.47897    0.41916   1.00
H2       0.86068    0.39581    0.39530   1.00
H2       0.90093    0.40429    0.42729   1.00
C5       0.90918    0.42762    0.36820   1.00
H2       0.89176    0.44371    0.34609   1.00
C5       0.92547    0.39023    0.34937   1.00
H2       0.93493    0.44562    0.37702   1.00
C5       0.75983    0.39537    0.57164   1.00
H2       0.73785    0.38641    0.59385   1.00
H2       0.78048    0.41568    0.58641   1.00
C5       0.78200    0.35967    0.55576   1.00
C5       0.79775    0.33501    0.58984   1.00
H2       0.55714    0.64391    0.37955   1.00
C5       0.56088    0.69738    0.41486   1.00
H2       0.60677    0.66567    0.38311   1.00
C5       0.71663    0.57333    0.71956   1.00
H2       0.74449    0.61649    0.68107   1.00
H2       0.69707    0.59698    0.66318   1.00
C5       0.94503    0.40047    0.31024   1.00
H2       0.94789    0.37644    0.36969   1.00
H2       0.90063    0.36876    0.34406   1.00
H2       0.81398    0.35469    0.61118   1.00
H2       0.77239    0.32024    0.60548   1.00
C5       0.82583    0.30374    0.57398   1.00
H2       0.54884    0.69271    0.44550   1.00
H2       0.58429    0.72099    0.41563   1.00
H2       0.53626    0.70685    0.39460   1.00
H2       0.73180    0.54401    0.72360   1.00
H2       0.72771    0.59478    0.74243   1.00
H2       0.68379    0.56939    0.72302   1.00
H2       0.96111    0.42943    0.31313   1.00
H2       0.96664    0.37655    0.30206   1.00
H2       0.92181    0.40299    0.28657   1.00
H2       0.85693    0.31552    0.57442   1.00
H2       0.82402    0.27653    0.59301   1.00
H2       0.81734    0.29602    0.54277   1.00
C5       1.38218    0.60061    0.57715   1.00
H2       1.39745    0.57645    0.59240   1.00
H2       1.36090    0.61252    0.59850   1.00
C5       1.41194    0.63216    0.56544   1.00
C5       1.42123    0.65903    0.60022   1.00
H2       1.40015    0.65008    0.54105   1.00
O3       1.23000    0.55206    0.45199   1.00
C4       1.27100    0.49959    0.50008   1.00
C3c      1.29243    0.52276    0.52621   1.00
H1       1.27725    0.54102    0.54697   1.00
C3d      1.29135    0.47558    0.47364   1.00
C3       1.33354    0.52323    0.52567   1.00
O2       1.35248    0.54287    0.55513   1.00
C3       1.33227    0.47654    0.47252   1.00
H1       1.34657    0.45867    0.45081   1.00
C2       1.35439    0.50012    0.49845   1.00
C5       1.22879    0.53991    0.41264   1.00
H2       1.19838    0.53824    0.40121   1.00
H2       1.24266    0.51068    0.40896   1.00
C5       1.25129    0.56982    0.38860   1.00
H2       1.28137    0.57230    0.40071   1.00
H2       1.23698    0.59881    0.39219   1.00
C5       1.25262    0.55802    0.34527   1.00
H2       1.22268    0.55523    0.33306   1.00
H2       1.26811    0.52973    0.34151   1.00
C5       1.27445    0.58927    0.32149   1.00
C5       1.26105    0.41776    0.46064   1.00
C5       1.36070    0.58150    0.54319   1.00
H2       1.24088    0.42088    0.48587   1.00
H2       1.28712    0.40074    0.47016   1.00
H2       1.33300    0.59744    0.53695   1.00
H2       1.37895    0.58261    0.51614   1.00
H2       1.44030    0.61886    0.55629   1.00
H2       1.19247    0.36871    0.46235   1.00
H2       1.23763    0.34088    0.46201   1.00
C2       1.14605    0.50023    0.49733   1.00
C3       1.16597    0.47511    0.52320   1.00
O2       1.14674    0.44421    0.54041   1.00
C3       1.16826    0.52617    0.47412   1.00
H1       1.15385    0.54647    0.45477   1.00
C3a      1.20713    0.47570    0.52456   1.00
H1       1.22202    0.45475    0.54287   1.00
C3b      1.20922    0.52582    0.47464   1.00
C4       1.22900    0.50041    0.49992   1.00
O3       1.27167    0.45449    0.44537   1.00
C5       1.13720    0.45331    0.57941   1.00
H2       1.16391    0.45986    0.59690   1.00
C5       1.11674    0.41769    0.59648   1.00
H2       1.11726    0.47897    0.58084   1.00
H2       1.13932    0.39581    0.60470   1.00
H2       1.09907    0.40429    0.57271   1.00
C5       1.09082    0.42762    0.63180   1.00
H2       1.10824    0.44371    0.65391   1.00
C5       1.07453    0.39023    0.65063   1.00
H2       1.06507    0.44562    0.62298   1.00
C5       1.24017    0.39537    0.42836   1.00
H2       1.26215    0.38641    0.40615   1.00
H2       1.21952    0.41568    0.41359   1.00
C5       1.21800    0.35967    0.44424   1.00
C5       1.20225    0.33501    0.41016   1.00
H2       1.44286    0.64391    0.62045   1.00
C5       1.43912    0.69738    0.58514   1.00
H2       1.39323    0.66567    0.61689   1.00
C5       1.28337    0.57333    0.28044   1.00
H2       1.25551    0.61649    0.31893   1.00
H2       1.30293    0.59698    0.33682   1.00
C5       1.05497    0.40047    0.68976   1.00
H2       1.05211    0.37644    0.63031   1.00
H2       1.09937    0.36876    0.65594   1.00
H2       1.18602    0.35469    0.38882   1.00
H2       1.22761    0.32024    0.39452   1.00
C5       1.17417    0.30374    0.42602   1.00
H2       1.45116    0.69271    0.55450   1.00
H2       1.41571    0.72099    0.58437   1.00
H2       1.46374    0.70685    0.60540   1.00
H2       1.26820    0.54401    0.27640   1.00
H2       1.27229    0.59478    0.25757   1.00
H2       1.31621    0.56939    0.27698   1.00
H2       1.03889    0.42943    0.68687   1.00
H2       1.03336    0.37655    0.69794   1.00
H2       1.07819    0.40299    0.71343   1.00
H2       1.14307    0.31552    0.42558   1.00
H2       1.17598    0.27653    0.40699   1.00
H2       1.18266    0.29602    0.45723   1.00
C5       0.92285    0.11782    0.60061   1.00
H2       0.90760    0.10255    0.57645   1.00
H2       0.90150    0.13910    0.61252   1.00
C5       0.93456    0.08806    0.63216   1.00
C5       0.89978    0.07877    0.65903   1.00
H2       0.95895    0.09985    0.65008   1.00
O3       1.04801    0.27000    0.55206   1.00
C4       0.99992    0.22900    0.49959   1.00
C3c      0.97379    0.20757    0.52276   1.00
H1       0.95303    0.22275    0.54102   1.00
C3d      1.02636    0.20865    0.47558   1.00
C3       0.97433    0.16646    0.52323   1.00
O2       0.94487    0.14752    0.54287   1.00
C3       1.02748    0.16773    0.47654   1.00
H1       1.04919    0.15343    0.45867   1.00
C2       1.00155    0.14561    0.50012   1.00
C5       1.08736    0.27121    0.53991   1.00
H2       1.09879    0.30162    0.53824   1.00
H2       1.09104    0.25734    0.51068   1.00
C5       1.11140    0.24871    0.56982   1.00
H2       1.09929    0.21863    0.57230   1.00
H2       1.10781    0.26302    0.59881   1.00
C5       1.15473    0.24738    0.55802   1.00
H2       1.16694    0.27732    0.55523   1.00
H2       1.15849    0.23189    0.52973   1.00
C5       1.17851    0.22555    0.58927   1.00
C5       1.03936    0.23895    0.41776   1.00
C5       0.95681    0.13930    0.58150   1.00
H2       1.01413    0.25912    0.42088   1.00
H2       1.02984    0.21288    0.40074   1.00
H2       0.96305    0.16700    0.59744   1.00
H2       0.98386    0.12105    0.58261   1.00
H2       0.94371    0.05970    0.61886   1.00
H2       1.03765    0.30753    0.36871   1.00
H2       1.03799    0.26237    0.34088   1.00
C2       1.00267    0.35395    0.50023   1.00
C3       0.97680    0.33403    0.47511   1.00
O2       0.95959    0.35326    0.44421   1.00
C3       1.02588    0.33174    0.52617   1.00
H1       1.04523    0.34615    0.54647   1.00
C3a      0.97544    0.29287    0.47570   1.00
H1       0.95713    0.27798    0.45475   1.00
C3b      1.02536    0.29078    0.52582   1.00
C4       1.00008    0.27100    0.50041   1.00
O3       1.05463    0.22833    0.45449   1.00
C5       0.92059    0.36280    0.45331   1.00
H2       0.90310    0.33609    0.45986   1.00
C5       0.90352    0.38326    0.41769   1.00
H2       0.91916    0.38274    0.47897   1.00
H2       0.89530    0.36068    0.39581   1.00
H2       0.92729    0.40093    0.40429   1.00
C5       0.86820    0.40918    0.42762   1.00
H2       0.84609    0.39176    0.44371   1.00
C5       0.84937    0.42547    0.39023   1.00
H2       0.87702    0.43493    0.44562   1.00
C5       1.07164    0.25983    0.39537   1.00
H2       1.09385    0.23785    0.38641   1.00
H2       1.08641    0.28048    0.41568   1.00
C5       1.05576    0.28200    0.35967   1.00
C5       1.08984    0.29775    0.33501   1.00
H2       0.87955    0.05714    0.64391   1.00
C5       0.91486    0.06088    0.69738   1.00
H2       0.88311    0.10677    0.66567   1.00
C5       1.21956    0.21663    0.57333   1.00
H2       1.18107    0.24449    0.61649   1.00
H2       1.16318    0.19707    0.59698   1.00
C5       0.81024    0.44503    0.40047   1.00
H2       0.86969    0.44789    0.37644   1.00
H2       0.84406    0.40063    0.36876   1.00
H2       1.11118    0.31398    0.35469   1.00
H2       1.10548    0.27239    0.32024   1.00
C5       1.07398    0.32583    0.30374   1.00
H2       0.94550    0.04884    0.69271   1.00
H2       0.91563    0.08429    0.72099   1.00
H2       0.89460    0.03626    0.70685   1.00
H2       1.22360    0.23180    0.54401   1.00
H2       1.24243    0.22771    0.59478   1.00
H2       1.22302    0.18379    0.56939   1.00
H2       0.81313    0.46111    0.42943   1.00
H2       0.80206    0.46664    0.37655   1.00
H2       0.78657    0.42181    0.40299   1.00
H2       1.07442    0.35693    0.31552   1.00
H2       1.09301    0.32402    0.27653   1.00
H2       1.04277    0.31734    0.29602   1.00
C5       1.10061    0.42285    0.11782   1.00
H2       1.07645    0.40760    0.10255   1.00
H2       1.11252    0.40150    0.13910   1.00
C5       1.13216    0.43456    0.08806   1.00
C5       1.15903    0.39978    0.07877   1.00
H2       1.15008    0.45895    0.09985   1.00
O3       1.05206    0.54801    0.27000   1.00
C4       0.99959    0.49992    0.22900   1.00
C3c      1.02276    0.47379    0.20757   1.00
H1       1.04102    0.45303    0.22275   1.00
C3d      0.97558    0.52636    0.20865   1.00
C3       1.02323    0.47433    0.16646   1.00
O2       1.04287    0.44487    0.14752   1.00
C3       0.97654    0.52748    0.16773   1.00
H1       0.95867    0.54919    0.15343   1.00
C2       1.00012    0.50155    0.14561   1.00
C5       1.03991    0.58736    0.27121   1.00
H2       1.03824    0.59879    0.30162   1.00
H2       1.01068    0.59104    0.25734   1.00
C5       1.06982    0.61140    0.24871   1.00
H2       1.07230    0.59929    0.21863   1.00
H2       1.09881    0.60781    0.26302   1.00
C5       1.05802    0.65473    0.24738   1.00
H2       1.05523    0.66694    0.27732   1.00
H2       1.02973    0.65849    0.23189   1.00
C5       1.08927    0.67851    0.22555   1.00
C5       0.91776    0.53936    0.23895   1.00
C5       1.08150    0.45681    0.13930   1.00
H2       0.92088    0.51413    0.25912   1.00
H2       0.90074    0.52984    0.21288   1.00
H2       1.09744    0.46305    0.16700   1.00
H2       1.08261    0.48386    0.12105   1.00
H2       1.11886    0.44371    0.05970   1.00
H2       0.86871    0.53765    0.30753   1.00
H2       0.84088    0.53799    0.26237   1.00
C2       1.00023    0.50267    0.35395   1.00
C3       0.97511    0.47680    0.33403   1.00
O2       0.94421    0.45959    0.35326   1.00
C3       1.02617    0.52588    0.33174   1.00
H1       1.04647    0.54523    0.34615   1.00
C3a      0.97570    0.47544    0.29287   1.00
H1       0.95475    0.45713    0.27798   1.00
C3b      1.02582    0.52536    0.29078   1.00
C4       1.00041    0.50008    0.27100   1.00
O3       0.95449    0.55463    0.22833   1.00
C5       0.95331    0.42059    0.36280   1.00
H2       0.95986    0.40310    0.33609   1.00
C5       0.91769    0.40352    0.38326   1.00
H2       0.97897    0.41916    0.38274   1.00
H2       0.89581    0.39530    0.36068   1.00
H2       0.90429    0.42729    0.40093   1.00
C5       0.92762    0.36820    0.40918   1.00
H2       0.94371    0.34609    0.39176   1.00
C5       0.89023    0.34937    0.42547   1.00
H2       0.94562    0.37702    0.43493   1.00
C5       0.89537    0.57164    0.25983   1.00
H2       0.88641    0.59385    0.23785   1.00
H2       0.91568    0.58641    0.28048   1.00
C5       0.85967    0.55576    0.28200   1.00
C5       0.83501    0.58984    0.29775   1.00
H2       1.14391    0.37955    0.05714   1.00
C5       1.19738    0.41486    0.06088   1.00
H2       1.16567    0.38311    0.10677   1.00
C5       1.07333    0.71956    0.21663   1.00
H2       1.11649    0.68107    0.24449   1.00
H2       1.09698    0.66318    0.19707   1.00
C5       0.90047    0.31024    0.44503   1.00
H2       0.87644    0.36969    0.44789   1.00
H2       0.86876    0.34406    0.40063   1.00
H2       0.85469    0.61118    0.31398   1.00
H2       0.82024    0.60548    0.27239   1.00
C5       0.80374    0.57398    0.32583   1.00
H2       1.19271    0.44550    0.04884   1.00
H2       1.22099    0.41563    0.08429   1.00
H2       1.20685    0.39460    0.03626   1.00
H2       1.04401    0.72360    0.23180   1.00
H2       1.09478    0.74243    0.22771   1.00
H2       1.06939    0.72302    0.18379   1.00
H2       0.92943    0.31313    0.46111   1.00
H2       0.87655    0.30206    0.46664   1.00
H2       0.90299    0.28657    0.42181   1.00
H2       0.81552    0.57442    0.35693   1.00
H2       0.77653    0.59301    0.32402   1.00
H2       0.79602    0.54277    0.31734   1.00
