data_IRMOF10_SG202_interpen_Ligand12lp_label_z.

_audit_creation_method             'generated by an auxiliary program of Tobunporous'

_symmetry_space_group_name_H-M     'P 1'
_symmetry_Int_Tables_number        1
_symmetry_cell_setting             triclinic

_cell_length_a                    34.2800
_cell_length_b                    34.2800
_cell_length_c                    34.2800
_cell_angle_alpha                 90.0000
_cell_angle_beta                  90.0000
_cell_angle_gamma                 90.0000

loop_
_atom_site_label
_atom_site_fract_x
_atom_site_fract_y
_atom_site_fract_z
_atom_site_occupancy
O1       0.75000    0.75000    0.75000   1.00
Zn1      0.71720    0.78280    0.78280   1.00
Zn1      0.78280    0.71720    0.78280   1.00
Zn1      0.78280    0.78280    0.71720   1.00
Zn1      0.71720    0.71720    0.71720   1.00
O2       0.72650    0.77350    0.83820   1.00
O2       0.72650    0.83820    0.77350   1.00
O2       0.66180    0.77350    0.77350   1.00
O2       0.77350    0.72650    0.83820   1.00
O2       0.83820    0.72650    0.77350   1.00
O2       0.77350    0.66180    0.77350   1.00
O2       0.77350    0.83820    0.72650   1.00
O2       0.83820    0.77350    0.72650   1.00
O2       0.77350    0.77350    0.66180   1.00
O2       0.66180    0.72650    0.72650   1.00
O2       0.72650    0.66180    0.72650   1.00
O2       0.72650    0.72650    0.66180   1.00
C1       0.75000    0.75000    0.85520   1.00
C1       0.75000    0.85520    0.75000   1.00
C1       0.64480    0.75000    0.75000   1.00
C1       0.85520    0.75000    0.75000   1.00
C1       0.75000    0.64480    0.75000   1.00
C1       0.75000    0.75000    0.64480   1.00
O1       0.25000    0.25000    0.75000   1.00
Zn1      0.21720    0.28280    0.78280   1.00
Zn1      0.28280    0.21720    0.78280   1.00
Zn1      0.28280    0.28280    0.71720   1.00
Zn1      0.21720    0.21720    0.71720   1.00
O2       0.22650    0.27350    0.83820   1.00
O2       0.22650    0.33820    0.77350   1.00
O2       0.16180    0.27350    0.77350   1.00
O2       0.27350    0.22650    0.83820   1.00
O2       0.33820    0.22650    0.77350   1.00
O2       0.27350    0.16180    0.77350   1.00
O2       0.27350    0.33820    0.72650   1.00
O2       0.33820    0.27350    0.72650   1.00
O2       0.27350    0.27350    0.66180   1.00
O2       0.16180    0.22650    0.72650   1.00
O2       0.22650    0.16180    0.72650   1.00
O2       0.22650    0.22650    0.66180   1.00
C1       0.25000    0.25000    0.85520   1.00
C1       0.25000    0.35520    0.75000   1.00
C1       0.14480    0.25000    0.75000   1.00
C1       0.35520    0.25000    0.75000   1.00
C1       0.25000    0.14480    0.75000   1.00
C1       0.25000    0.25000    0.64480   1.00
O1       0.25000    0.75000    0.25000   1.00
Zn1      0.21720    0.78280    0.28280   1.00
Zn1      0.28280    0.71720    0.28280   1.00
Zn1      0.28280    0.78280    0.21720   1.00
Zn1      0.21720    0.71720    0.21720   1.00
O2       0.22650    0.77350    0.33820   1.00
O2       0.22650    0.83820    0.27350   1.00
O2       0.16180    0.77350    0.27350   1.00
O2       0.27350    0.72650    0.33820   1.00
O2       0.33820    0.72650    0.27350   1.00
O2       0.27350    0.66180    0.27350   1.00
O2       0.27350    0.83820    0.22650   1.00
O2       0.33820    0.77350    0.22650   1.00
O2       0.27350    0.77350    0.16180   1.00
O2       0.16180    0.72650    0.22650   1.00
O2       0.22650    0.66180    0.22650   1.00
O2       0.22650    0.72650    0.16180   1.00
C1       0.25000    0.75000    0.35520   1.00
C1       0.25000    0.85520    0.25000   1.00
C1       0.14480    0.75000    0.25000   1.00
C1       0.35520    0.75000    0.25000   1.00
C1       0.25000    0.64480    0.25000   1.00
C1       0.25000    0.75000    0.14480   1.00
O1       0.75000    0.25000    0.25000   1.00
Zn1      0.71720    0.28280    0.28280   1.00
Zn1      0.78280    0.21720    0.28280   1.00
Zn1      0.78280    0.28280    0.21720   1.00
Zn1      0.71720    0.21720    0.21720   1.00
O2       0.72650    0.27350    0.33820   1.00
O2       0.72650    0.33820    0.27350   1.00
O2       0.66180    0.27350    0.27350   1.00
O2       0.77350    0.22650    0.33820   1.00
O2       0.83820    0.22650    0.27350   1.00
O2       0.77350    0.16180    0.27350   1.00
O2       0.77350    0.33820    0.22650   1.00
O2       0.83820    0.27350    0.22650   1.00
O2       0.77350    0.27350    0.16180   1.00
O2       0.66180    0.22650    0.22650   1.00
O2       0.72650    0.16180    0.22650   1.00
O2       0.72650    0.22650    0.16180   1.00
C1       0.75000    0.25000    0.35520   1.00
C1       0.75000    0.35520    0.25000   1.00
C1       0.64480    0.25000    0.25000   1.00
C1       0.85520    0.25000    0.25000   1.00
C1       0.75000    0.14480    0.25000   1.00
C1       0.75000    0.25000    0.14480   1.00
O1       0.25000    0.25000    0.25000   1.00
Zn1      0.28280    0.21720    0.21720   1.00
Zn1      0.21720    0.28280    0.21720   1.00
Zn1      0.21720    0.21720    0.28280   1.00
Zn1      0.28280    0.28280    0.28280   1.00
O2       0.27350    0.22650    0.16180   1.00
O2       0.27350    0.16180    0.22650   1.00
O2       0.33820    0.22650    0.22650   1.00
O2       0.22650    0.27350    0.16180   1.00
O2       0.16180    0.27350    0.22650   1.00
O2       0.22650    0.33820    0.22650   1.00
O2       0.22650    0.16180    0.27350   1.00
O2       0.16180    0.22650    0.27350   1.00
O2       0.22650    0.22650    0.33820   1.00
O2       0.33820    0.27350    0.27350   1.00
O2       0.27350    0.33820    0.27350   1.00
O2       0.27350    0.27350    0.33820   1.00
C1       0.25000    0.25000    0.14480   1.00
C1       0.25000    0.14480    0.25000   1.00
C1       0.35520    0.25000    0.25000   1.00
C1       0.14480    0.25000    0.25000   1.00
C1       0.25000    0.35520    0.25000   1.00
C1       0.25000    0.25000    0.35520   1.00
O1       0.75000    0.75000    0.25000   1.00
Zn1      0.78280    0.71720    0.21720   1.00
Zn1      0.71720    0.78280    0.21720   1.00
Zn1      0.71720    0.71720    0.28280   1.00
Zn1      0.78280    0.78280    0.28280   1.00
O2       0.77350    0.72650    0.16180   1.00
O2       0.77350    0.66180    0.22650   1.00
O2       0.83820    0.72650    0.22650   1.00
O2       0.72650    0.77350    0.16180   1.00
O2       0.66180    0.77350    0.22650   1.00
O2       0.72650    0.83820    0.22650   1.00
O2       0.72650    0.66180    0.27350   1.00
O2       0.66180    0.72650    0.27350   1.00
O2       0.72650    0.72650    0.33820   1.00
O2       0.83820    0.77350    0.27350   1.00
O2       0.77350    0.83820    0.27350   1.00
O2       0.77350    0.77350    0.33820   1.00
C1       0.75000    0.75000    0.14480   1.00
C1       0.75000    0.64480    0.25000   1.00
C1       0.85520    0.75000    0.25000   1.00
C1       0.64480    0.75000    0.25000   1.00
C1       0.75000    0.85520    0.25000   1.00
C1       0.75000    0.75000    0.35520   1.00
O1       0.75000    0.25000    0.75000   1.00
Zn1      0.78280    0.21720    0.71720   1.00
Zn1      0.71720    0.28280    0.71720   1.00
Zn1      0.71720    0.21720    0.78280   1.00
Zn1      0.78280    0.28280    0.78280   1.00
O2       0.77350    0.22650    0.66180   1.00
O2       0.77350    0.16180    0.72650   1.00
O2       0.83820    0.22650    0.72650   1.00
O2       0.72650    0.27350    0.66180   1.00
O2       0.66180    0.27350    0.72650   1.00
O2       0.72650    0.33820    0.72650   1.00
O2       0.72650    0.16180    0.77350   1.00
O2       0.66180    0.22650    0.77350   1.00
O2       0.72650    0.22650    0.83820   1.00
O2       0.83820    0.27350    0.77350   1.00
O2       0.77350    0.33820    0.77350   1.00
O2       0.77350    0.27350    0.83820   1.00
C1       0.75000    0.25000    0.64480   1.00
C1       0.75000    0.14480    0.75000   1.00
C1       0.85520    0.25000    0.75000   1.00
C1       0.64480    0.25000    0.75000   1.00
C1       0.75000    0.35520    0.75000   1.00
C1       0.75000    0.25000    0.85520   1.00
O1       0.25000    0.75000    0.75000   1.00
Zn1      0.28280    0.71720    0.71720   1.00
Zn1      0.21720    0.78280    0.71720   1.00
Zn1      0.21720    0.71720    0.78280   1.00
Zn1      0.28280    0.78280    0.78280   1.00
O2       0.27350    0.72650    0.66180   1.00
O2       0.27350    0.66180    0.72650   1.00
O2       0.33820    0.72650    0.72650   1.00
O2       0.22650    0.77350    0.66180   1.00
O2       0.16180    0.77350    0.72650   1.00
O2       0.22650    0.83820    0.72650   1.00
O2       0.22650    0.66180    0.77350   1.00
O2       0.16180    0.72650    0.77350   1.00
O2       0.22650    0.72650    0.83820   1.00
O2       0.33820    0.77350    0.77350   1.00
O2       0.27350    0.83820    0.77350   1.00
O2       0.27350    0.77350    0.83820   1.00
C1       0.25000    0.75000    0.64480   1.00
C1       0.25000    0.64480    0.75000   1.00
C1       0.35520    0.75000    0.75000   1.00
C1       0.14480    0.75000    0.75000   1.00
C1       0.25000    0.85520    0.75000   1.00
C1       0.25000    0.75000    0.85520   1.00
O1       1.00000    1.00000    1.00000   1.00
Zn1      0.96720    1.03280    1.03280   1.00
Zn1      1.03280    0.96720    1.03280   1.00
Zn1      1.03280    1.03280    0.96720   1.00
Zn1      0.96720    0.96720    0.96720   1.00
O2       0.97650    1.02350    1.08820   1.00
O2       0.97650    1.08820    1.02350   1.00
O2       0.91180    1.02350    1.02350   1.00
O2       1.02350    0.97650    1.08820   1.00
O2       1.08820    0.97650    1.02350   1.00
O2       1.02350    0.91180    1.02350   1.00
O2       1.02350    1.08820    0.97650   1.00
O2       1.08820    1.02350    0.97650   1.00
O2       1.02350    1.02350    0.91180   1.00
O2       0.91180    0.97650    0.97650   1.00
O2       0.97650    0.91180    0.97650   1.00
O2       0.97650    0.97650    0.91180   1.00
C1       1.00000    1.00000    1.10520   1.00
C1       1.00000    1.10520    1.00000   1.00
C1       0.89480    1.00000    1.00000   1.00
C1       1.10520    1.00000    1.00000   1.00
C1       1.00000    0.89480    1.00000   1.00
C1       1.00000    1.00000    0.89480   1.00
O1       0.50000    0.50000    1.00000   1.00
Zn1      0.46720    0.53280    1.03280   1.00
Zn1      0.53280    0.46720    1.03280   1.00
Zn1      0.53280    0.53280    0.96720   1.00
Zn1      0.46720    0.46720    0.96720   1.00
O2       0.47650    0.52350    1.08820   1.00
O2       0.47650    0.58820    1.02350   1.00
O2       0.41180    0.52350    1.02350   1.00
O2       0.52350    0.47650    1.08820   1.00
O2       0.58820    0.47650    1.02350   1.00
O2       0.52350    0.41180    1.02350   1.00
O2       0.52350    0.58820    0.97650   1.00
O2       0.58820    0.52350    0.97650   1.00
O2       0.52350    0.52350    0.91180   1.00
O2       0.41180    0.47650    0.97650   1.00
O2       0.47650    0.41180    0.97650   1.00
O2       0.47650    0.47650    0.91180   1.00
C1       0.50000    0.50000    1.10520   1.00
C1       0.50000    0.60520    1.00000   1.00
C1       0.39480    0.50000    1.00000   1.00
C1       0.60520    0.50000    1.00000   1.00
C1       0.50000    0.39480    1.00000   1.00
C1       0.50000    0.50000    0.89480   1.00
O1       0.50000    1.00000    0.50000   1.00
Zn1      0.46720    1.03280    0.53280   1.00
Zn1      0.53280    0.96720    0.53280   1.00
Zn1      0.53280    1.03280    0.46720   1.00
Zn1      0.46720    0.96720    0.46720   1.00
O2       0.47650    1.02350    0.58820   1.00
O2       0.47650    1.08820    0.52350   1.00
O2       0.41180    1.02350    0.52350   1.00
O2       0.52350    0.97650    0.58820   1.00
O2       0.58820    0.97650    0.52350   1.00
O2       0.52350    0.91180    0.52350   1.00
O2       0.52350    1.08820    0.47650   1.00
O2       0.58820    1.02350    0.47650   1.00
O2       0.52350    1.02350    0.41180   1.00
O2       0.41180    0.97650    0.47650   1.00
O2       0.47650    0.91180    0.47650   1.00
O2       0.47650    0.97650    0.41180   1.00
C1       0.50000    1.00000    0.60520   1.00
C1       0.50000    1.10520    0.50000   1.00
C1       0.39480    1.00000    0.50000   1.00
C1       0.60520    1.00000    0.50000   1.00
C1       0.50000    0.89480    0.50000   1.00
C1       0.50000    1.00000    0.39480   1.00
O1       1.00000    0.50000    0.50000   1.00
Zn1      0.96720    0.53280    0.53280   1.00
Zn1      1.03280    0.46720    0.53280   1.00
Zn1      1.03280    0.53280    0.46720   1.00
Zn1      0.96720    0.46720    0.46720   1.00
O2       0.97650    0.52350    0.58820   1.00
O2       0.97650    0.58820    0.52350   1.00
O2       0.91180    0.52350    0.52350   1.00
O2       1.02350    0.47650    0.58820   1.00
O2       1.08820    0.47650    0.52350   1.00
O2       1.02350    0.41180    0.52350   1.00
O2       1.02350    0.58820    0.47650   1.00
O2       1.08820    0.52350    0.47650   1.00
O2       1.02350    0.52350    0.41180   1.00
O2       0.91180    0.47650    0.47650   1.00
O2       0.97650    0.41180    0.47650   1.00
O2       0.97650    0.47650    0.41180   1.00
C1       1.00000    0.50000    0.60520   1.00
C1       1.00000    0.60520    0.50000   1.00
C1       0.89480    0.50000    0.50000   1.00
C1       1.10520    0.50000    0.50000   1.00
C1       1.00000    0.39480    0.50000   1.00
C1       1.00000    0.50000    0.39480   1.00
O1       0.50000    0.50000    0.50000   1.00
Zn1      0.53280    0.46720    0.46720   1.00
Zn1      0.46720    0.53280    0.46720   1.00
Zn1      0.46720    0.46720    0.53280   1.00
Zn1      0.53280    0.53280    0.53280   1.00
O2       0.52350    0.47650    0.41180   1.00
O2       0.52350    0.41180    0.47650   1.00
O2       0.58820    0.47650    0.47650   1.00
O2       0.47650    0.52350    0.41180   1.00
O2       0.41180    0.52350    0.47650   1.00
O2       0.47650    0.58820    0.47650   1.00
O2       0.47650    0.41180    0.52350   1.00
O2       0.41180    0.47650    0.52350   1.00
O2       0.47650    0.47650    0.58820   1.00
O2       0.58820    0.52350    0.52350   1.00
O2       0.52350    0.58820    0.52350   1.00
O2       0.52350    0.52350    0.58820   1.00
C1       0.50000    0.50000    0.39480   1.00
C1       0.50000    0.39480    0.50000   1.00
C1       0.60520    0.50000    0.50000   1.00
C1       0.39480    0.50000    0.50000   1.00
C1       0.50000    0.60520    0.50000   1.00
C1       0.50000    0.50000    0.60520   1.00
O1       1.00000    1.00000    0.50000   1.00
Zn1      1.03280    0.96720    0.46720   1.00
Zn1      0.96720    1.03280    0.46720   1.00
Zn1      0.96720    0.96720    0.53280   1.00
Zn1      1.03280    1.03280    0.53280   1.00
O2       1.02350    0.97650    0.41180   1.00
O2       1.02350    0.91180    0.47650   1.00
O2       1.08820    0.97650    0.47650   1.00
O2       0.97650    1.02350    0.41180   1.00
O2       0.91180    1.02350    0.47650   1.00
O2       0.97650    1.08820    0.47650   1.00
O2       0.97650    0.91180    0.52350   1.00
O2       0.91180    0.97650    0.52350   1.00
O2       0.97650    0.97650    0.58820   1.00
O2       1.08820    1.02350    0.52350   1.00
O2       1.02350    1.08820    0.52350   1.00
O2       1.02350    1.02350    0.58820   1.00
C1       1.00000    1.00000    0.39480   1.00
C1       1.00000    0.89480    0.50000   1.00
C1       1.10520    1.00000    0.50000   1.00
C1       0.89480    1.00000    0.50000   1.00
C1       1.00000    1.10520    0.50000   1.00
C1       1.00000    1.00000    0.60520   1.00
O1       1.00000    0.50000    1.00000   1.00
Zn1      1.03280    0.46720    0.96720   1.00
Zn1      0.96720    0.53280    0.96720   1.00
Zn1      0.96720    0.46720    1.03280   1.00
Zn1      1.03280    0.53280    1.03280   1.00
O2       1.02350    0.47650    0.91180   1.00
O2       1.02350    0.41180    0.97650   1.00
O2       1.08820    0.47650    0.97650   1.00
O2       0.97650    0.52350    0.91180   1.00
O2       0.91180    0.52350    0.97650   1.00
O2       0.97650    0.58820    0.97650   1.00
O2       0.97650    0.41180    1.02350   1.00
O2       0.91180    0.47650    1.02350   1.00
O2       0.97650    0.47650    1.08820   1.00
O2       1.08820    0.52350    1.02350   1.00
O2       1.02350    0.58820    1.02350   1.00
O2       1.02350    0.52350    1.08820   1.00
C1       1.00000    0.50000    0.89480   1.00
C1       1.00000    0.39480    1.00000   1.00
C1       1.10520    0.50000    1.00000   1.00
C1       0.89480    0.50000    1.00000   1.00
C1       1.00000    0.60520    1.00000   1.00
C1       1.00000    0.50000    1.10520   1.00
O1       0.50000    1.00000    1.00000   1.00
Zn1      0.53280    0.96720    0.96720   1.00
Zn1      0.46720    1.03280    0.96720   1.00
Zn1      0.46720    0.96720    1.03280   1.00
Zn1      0.53280    1.03280    1.03280   1.00
O2       0.52350    0.97650    0.91180   1.00
O2       0.52350    0.91180    0.97650   1.00
O2       0.58820    0.97650    0.97650   1.00
O2       0.47650    1.02350    0.91180   1.00
O2       0.41180    1.02350    0.97650   1.00
O2       0.47650    1.08820    0.97650   1.00
O2       0.47650    0.91180    1.02350   1.00
O2       0.41180    0.97650    1.02350   1.00
O2       0.47650    0.97650    1.08820   1.00
O2       0.58820    1.02350    1.02350   1.00
O2       0.52350    1.08820    1.02350   1.00
O2       0.52350    1.02350    1.08820   1.00
C1       0.50000    1.00000    0.89480   1.00
C1       0.50000    0.89480    1.00000   1.00
C1       0.60520    1.00000    1.00000   1.00
C1       0.39480    1.00000    1.00000   1.00
C1       0.50000    1.10520    1.00000   1.00
C1       0.50000    1.00000    1.10520   1.00
C4       0.74945    0.75055    1.02067   1.00
C4       0.75055    0.74945    0.97933   1.00
C3       0.77172    0.77801    1.04244   1.00
C3       0.77801    0.77172    0.95756   1.00
C4       0.72586    0.72352    1.04150   1.00
C4       0.72352    0.72586    0.95850   1.00
C2       0.75046    0.75043    1.10352   1.00
C2       0.75043    0.75046    0.89648   1.00
C3       0.77236    0.77755    1.08310   1.00
C3       0.77755    0.77236    0.91690   1.00
C3       0.72703    0.72405    1.08306   1.00
C3       0.72405    0.72703    0.91694   1.00
H1       0.78833    0.80096    1.02888   1.00
H1       0.80096    0.78833    0.97112   1.00
C5       0.70135    0.69713    1.02065   1.00
C5       0.69713    0.70135    0.97935   1.00
H1       0.78986    0.79862    1.09886   1.00
H1       0.79862    0.78986    0.90114   1.00
H1       0.70952    0.70462    1.10053   1.00
H1       0.70462    0.70952    0.89947   1.00
C6       0.68112    0.66378    1.04234   1.00
C6       0.66378    0.68112    0.95766   1.00
H2       0.67931    0.63744    1.02358   1.00
H2       0.69855    0.65329    1.06737   1.00
C6       0.64071    0.67629    1.05724   1.00
H2       0.63744    0.67931    0.97642   1.00
H2       0.65329    0.69855    0.93263   1.00
C6       0.67629    0.64071    0.94276   1.00
H2       0.62188    0.68622    1.03274   1.00
C6       0.62069    0.64255    1.07832   1.00
H2       0.64373    0.70144    1.07760   1.00
C6       0.64255    0.62069    0.92168   1.00
H2       0.70144    0.64373    0.92240   1.00
H2       0.68622    0.62188    0.96726   1.00
H2       0.61663    0.61743    1.05822   1.00
H2       0.63831    0.63298    1.10380   1.00
H2       0.59157    0.65197    1.08898   1.00
H2       0.61743    0.61663    0.94178   1.00
H2       0.63298    0.63831    0.89620   1.00
H2       0.65197    0.59157    0.91102   1.00
C4       0.75055    1.02067    0.74945   1.00
C4       0.74945    0.97933    0.75055   1.00
C3       0.77801    1.04244    0.77172   1.00
C3       0.77172    0.95756    0.77801   1.00
C4       0.72352    1.04150    0.72586   1.00
C4       0.72586    0.95850    0.72352   1.00
C2       0.75043    1.10352    0.75046   1.00
C2       0.75046    0.89648    0.75043   1.00
C3       0.77755    1.08310    0.77236   1.00
C3       0.77236    0.91690    0.77755   1.00
C3       0.72405    1.08306    0.72703   1.00
C3       0.72703    0.91694    0.72405   1.00
H1       0.80096    1.02888    0.78833   1.00
H1       0.78833    0.97112    0.80096   1.00
C5       0.69713    1.02065    0.70135   1.00
C5       0.70135    0.97935    0.69713   1.00
H1       0.79862    1.09886    0.78986   1.00
H1       0.78986    0.90114    0.79862   1.00
H1       0.70462    1.10053    0.70952   1.00
H1       0.70952    0.89947    0.70462   1.00
C6       0.66378    1.04234    0.68112   1.00
C6       0.68112    0.95766    0.66378   1.00
H2       0.63744    1.02358    0.67931   1.00
H2       0.65329    1.06737    0.69855   1.00
C6       0.67629    1.05724    0.64071   1.00
H2       0.67931    0.97642    0.63744   1.00
H2       0.69855    0.93263    0.65329   1.00
C6       0.64071    0.94276    0.67629   1.00
H2       0.68622    1.03274    0.62188   1.00
C6       0.64255    1.07832    0.62069   1.00
H2       0.70144    1.07760    0.64373   1.00
C6       0.62069    0.92168    0.64255   1.00
H2       0.64373    0.92240    0.70144   1.00
H2       0.62188    0.96726    0.68622   1.00
H2       0.61743    1.05822    0.61663   1.00
H2       0.63298    1.10380    0.63831   1.00
H2       0.65197    1.08898    0.59157   1.00
H2       0.61663    0.94178    0.61743   1.00
H2       0.63831    0.89620    0.63298   1.00
H2       0.59157    0.91102    0.65197   1.00
C4       0.47933    0.74945    0.74945   1.00
C4       0.52067    0.75055    0.75055   1.00
C3       0.45756    0.77172    0.72199   1.00
C3       0.54244    0.77801    0.72828   1.00
C4       0.45850    0.72586    0.77648   1.00
C4       0.54150    0.72352    0.77414   1.00
C2       0.39648    0.75046    0.74957   1.00
C2       0.60352    0.75043    0.74954   1.00
C3       0.41690    0.77236    0.72245   1.00
C3       0.58310    0.77755    0.72764   1.00
C3       0.41694    0.72703    0.77595   1.00
C3       0.58306    0.72405    0.77297   1.00
H1       0.47112    0.78833    0.69904   1.00
H1       0.52888    0.80096    0.71167   1.00
C5       0.47935    0.70135    0.80287   1.00
C5       0.52065    0.69713    0.79865   1.00
H1       0.40114    0.78986    0.70138   1.00
H1       0.59886    0.79862    0.71014   1.00
H1       0.39947    0.70952    0.79538   1.00
H1       0.60053    0.70462    0.79048   1.00
C6       0.45766    0.68112    0.83622   1.00
C6       0.54234    0.66378    0.81888   1.00
H2       0.47642    0.67931    0.86256   1.00
H2       0.43263    0.69855    0.84671   1.00
C6       0.44276    0.64071    0.82371   1.00
H2       0.52358    0.63744    0.82069   1.00
H2       0.56737    0.65329    0.80145   1.00
C6       0.55724    0.67629    0.85929   1.00
H2       0.46726    0.62188    0.81378   1.00
C6       0.42168    0.62069    0.85745   1.00
H2       0.42240    0.64373    0.79856   1.00
C6       0.57832    0.64255    0.87931   1.00
H2       0.57760    0.70144    0.85627   1.00
H2       0.53274    0.68622    0.87812   1.00
H2       0.44178    0.61663    0.88257   1.00
H2       0.39620    0.63831    0.86702   1.00
H2       0.41102    0.59157    0.84803   1.00
H2       0.55822    0.61743    0.88337   1.00
H2       0.60380    0.63298    0.86169   1.00
H2       0.58898    0.65197    0.90843   1.00
C4       1.02067    0.74945    0.75055   1.00
C4       0.97933    0.75055    0.74945   1.00
C3       1.04244    0.77172    0.77801   1.00
C3       0.95756    0.77801    0.77172   1.00
C4       1.04150    0.72586    0.72352   1.00
C4       0.95850    0.72352    0.72586   1.00
C2       1.10352    0.75046    0.75043   1.00
C2       0.89648    0.75043    0.75046   1.00
C3       1.08310    0.77236    0.77755   1.00
C3       0.91690    0.77755    0.77236   1.00
C3       1.08306    0.72703    0.72405   1.00
C3       0.91694    0.72405    0.72703   1.00
H1       1.02888    0.78833    0.80096   1.00
H1       0.97112    0.80096    0.78833   1.00
C5       1.02065    0.70135    0.69713   1.00
C5       0.97935    0.69713    0.70135   1.00
H1       1.09886    0.78986    0.79862   1.00
H1       0.90114    0.79862    0.78986   1.00
H1       1.10053    0.70952    0.70462   1.00
H1       0.89947    0.70462    0.70952   1.00
C6       1.04234    0.68112    0.66378   1.00
C6       0.95766    0.66378    0.68112   1.00
H2       1.02358    0.67931    0.63744   1.00
H2       1.06737    0.69855    0.65329   1.00
C6       1.05724    0.64071    0.67629   1.00
H2       0.97642    0.63744    0.67931   1.00
H2       0.93263    0.65329    0.69855   1.00
C6       0.94276    0.67629    0.64071   1.00
H2       1.03274    0.62188    0.68622   1.00
C6       1.07832    0.62069    0.64255   1.00
H2       1.07760    0.64373    0.70144   1.00
C6       0.92168    0.64255    0.62069   1.00
H2       0.92240    0.70144    0.64373   1.00
H2       0.96726    0.68622    0.62188   1.00
H2       1.05822    0.61663    0.61743   1.00
H2       1.10380    0.63831    0.63298   1.00
H2       1.08898    0.59157    0.65197   1.00
H2       0.94178    0.61743    0.61663   1.00
H2       0.89620    0.63298    0.63831   1.00
H2       0.91102    0.65197    0.59157   1.00
C4       0.74945    0.47933    0.74945   1.00
C4       0.75055    0.52067    0.75055   1.00
C3       0.72199    0.45756    0.77172   1.00
C3       0.72828    0.54244    0.77801   1.00
C4       0.77648    0.45850    0.72586   1.00
C4       0.77414    0.54150    0.72352   1.00
C2       0.74957    0.39648    0.75046   1.00
C2       0.74954    0.60352    0.75043   1.00
C3       0.72245    0.41690    0.77236   1.00
C3       0.72764    0.58310    0.77755   1.00
C3       0.77595    0.41694    0.72703   1.00
C3       0.77297    0.58306    0.72405   1.00
H1       0.69904    0.47112    0.78833   1.00
H1       0.71167    0.52888    0.80096   1.00
C5       0.80287    0.47935    0.70135   1.00
C5       0.79865    0.52065    0.69713   1.00
H1       0.70138    0.40114    0.78986   1.00
H1       0.71014    0.59886    0.79862   1.00
H1       0.79538    0.39947    0.70952   1.00
H1       0.79048    0.60053    0.70462   1.00
C6       0.83622    0.45766    0.68112   1.00
C6       0.81888    0.54234    0.66378   1.00
H2       0.86256    0.47642    0.67931   1.00
H2       0.84671    0.43263    0.69855   1.00
C6       0.82371    0.44276    0.64071   1.00
H2       0.82069    0.52358    0.63744   1.00
H2       0.80145    0.56737    0.65329   1.00
C6       0.85929    0.55724    0.67629   1.00
H2       0.81378    0.46726    0.62188   1.00
C6       0.85745    0.42168    0.62069   1.00
H2       0.79856    0.42240    0.64373   1.00
C6       0.87931    0.57832    0.64255   1.00
H2       0.85627    0.57760    0.70144   1.00
H2       0.87812    0.53274    0.68622   1.00
H2       0.88257    0.44178    0.61663   1.00
H2       0.86702    0.39620    0.63831   1.00
H2       0.84803    0.41102    0.59157   1.00
H2       0.88337    0.55822    0.61743   1.00
H2       0.86169    0.60380    0.63298   1.00
H2       0.90843    0.58898    0.65197   1.00
C4       0.74945    0.74945    0.47933   1.00
C4       0.75055    0.75055    0.52067   1.00
C3       0.77172    0.72199    0.45756   1.00
C3       0.77801    0.72828    0.54244   1.00
C4       0.72586    0.77648    0.45850   1.00
C4       0.72352    0.77414    0.54150   1.00
C2       0.75046    0.74957    0.39648   1.00
C2       0.75043    0.74954    0.60352   1.00
C3       0.77236    0.72245    0.41690   1.00
C3       0.77755    0.72764    0.58310   1.00
C3       0.72703    0.77595    0.41694   1.00
C3       0.72405    0.77297    0.58306   1.00
H1       0.78833    0.69904    0.47112   1.00
H1       0.80096    0.71167    0.52888   1.00
C5       0.70135    0.80287    0.47935   1.00
C5       0.69713    0.79865    0.52065   1.00
H1       0.78986    0.70138    0.40114   1.00
H1       0.79862    0.71014    0.59886   1.00
H1       0.70952    0.79538    0.39947   1.00
H1       0.70462    0.79048    0.60053   1.00
C6       0.68112    0.83622    0.45766   1.00
C6       0.66378    0.81888    0.54234   1.00
H2       0.67931    0.86256    0.47642   1.00
H2       0.69855    0.84671    0.43263   1.00
C6       0.64071    0.82371    0.44276   1.00
H2       0.63744    0.82069    0.52358   1.00
H2       0.65329    0.80145    0.56737   1.00
C6       0.67629    0.85929    0.55724   1.00
H2       0.62188    0.81378    0.46726   1.00
C6       0.62069    0.85745    0.42168   1.00
H2       0.64373    0.79856    0.42240   1.00
C6       0.64255    0.87931    0.57832   1.00
H2       0.70144    0.85627    0.57760   1.00
H2       0.68622    0.87812    0.53274   1.00
H2       0.61663    0.88257    0.44178   1.00
H2       0.63831    0.86702    0.39620   1.00
H2       0.59157    0.84803    0.41102   1.00
H2       0.61743    0.88337    0.55822   1.00
H2       0.63298    0.86169    0.60380   1.00
H2       0.65197    0.90843    0.58898   1.00
C4       0.24945    0.25055    1.02067   1.00
C4       0.25055    0.24945    0.97933   1.00
C3       0.27172    0.27801    1.04244   1.00
C3       0.27801    0.27172    0.95756   1.00
C4       0.22586    0.22352    1.04150   1.00
C4       0.22352    0.22586    0.95850   1.00
C2       0.25046    0.25043    1.10352   1.00
C2       0.25043    0.25046    0.89648   1.00
C3       0.27236    0.27755    1.08310   1.00
C3       0.27755    0.27236    0.91690   1.00
C3       0.22703    0.22405    1.08306   1.00
C3       0.22405    0.22703    0.91694   1.00
H1       0.28833    0.30096    1.02888   1.00
H1       0.30096    0.28833    0.97112   1.00
C5       0.20135    0.19713    1.02065   1.00
C5       0.19713    0.20135    0.97935   1.00
H1       0.28986    0.29862    1.09886   1.00
H1       0.29862    0.28986    0.90114   1.00
H1       0.20952    0.20462    1.10053   1.00
H1       0.20462    0.20952    0.89947   1.00
C6       0.18112    0.16378    1.04234   1.00
C6       0.16378    0.18112    0.95766   1.00
H2       0.17931    0.13744    1.02358   1.00
H2       0.19855    0.15329    1.06737   1.00
C6       0.14071    0.17629    1.05724   1.00
H2       0.13744    0.17931    0.97642   1.00
H2       0.15329    0.19855    0.93263   1.00
C6       0.17629    0.14071    0.94276   1.00
H2       0.12188    0.18622    1.03274   1.00
C6       0.12069    0.14255    1.07832   1.00
H2       0.14373    0.20144    1.07760   1.00
C6       0.14255    0.12069    0.92168   1.00
H2       0.20144    0.14373    0.92240   1.00
H2       0.18622    0.12188    0.96726   1.00
H2       0.11663    0.11743    1.05822   1.00
H2       0.13831    0.13298    1.10380   1.00
H2       0.09157    0.15197    1.08898   1.00
H2       0.11743    0.11663    0.94178   1.00
H2       0.13298    0.13831    0.89620   1.00
H2       0.15197    0.09157    0.91102   1.00
C4       0.25055    0.52067    0.74945   1.00
C4       0.24945    0.47933    0.75055   1.00
C3       0.27801    0.54244    0.77172   1.00
C3       0.27172    0.45756    0.77801   1.00
C4       0.22352    0.54150    0.72586   1.00
C4       0.22586    0.45850    0.72352   1.00
C2       0.25043    0.60352    0.75046   1.00
C2       0.25046    0.39648    0.75043   1.00
C3       0.27755    0.58310    0.77236   1.00
C3       0.27236    0.41690    0.77755   1.00
C3       0.22405    0.58306    0.72703   1.00
C3       0.22703    0.41694    0.72405   1.00
H1       0.30096    0.52888    0.78833   1.00
H1       0.28833    0.47112    0.80096   1.00
C5       0.19713    0.52065    0.70135   1.00
C5       0.20135    0.47935    0.69713   1.00
H1       0.29862    0.59886    0.78986   1.00
H1       0.28986    0.40114    0.79862   1.00
H1       0.20462    0.60053    0.70952   1.00
H1       0.20952    0.39947    0.70462   1.00
C6       0.16378    0.54234    0.68112   1.00
C6       0.18112    0.45766    0.66378   1.00
H2       0.13744    0.52358    0.67931   1.00
H2       0.15329    0.56737    0.69855   1.00
C6       0.17629    0.55724    0.64071   1.00
H2       0.17931    0.47642    0.63744   1.00
H2       0.19855    0.43263    0.65329   1.00
C6       0.14071    0.44276    0.67629   1.00
H2       0.18622    0.53274    0.62188   1.00
C6       0.14255    0.57832    0.62069   1.00
H2       0.20144    0.57760    0.64373   1.00
C6       0.12069    0.42168    0.64255   1.00
H2       0.14373    0.42240    0.70144   1.00
H2       0.12188    0.46726    0.68622   1.00
H2       0.11743    0.55822    0.61663   1.00
H2       0.13298    0.60380    0.63831   1.00
H2       0.15197    0.58898    0.59157   1.00
H2       0.11663    0.44178    0.61743   1.00
H2       0.13831    0.39620    0.63298   1.00
H2       0.09157    0.41102    0.65197   1.00
C4       -0.02067   0.24945    0.74945   1.00
C4       0.02067    0.25055    0.75055   1.00
C3       -0.04244   0.27172    0.72199   1.00
C3       0.04244    0.27801    0.72828   1.00
C4       -0.04150   0.22586    0.77648   1.00
C4       0.04150    0.22352    0.77414   1.00
C2       -0.10352   0.25046    0.74957   1.00
C2       0.10352    0.25043    0.74954   1.00
C3       -0.08310   0.27236    0.72245   1.00
C3       0.08310    0.27755    0.72764   1.00
C3       -0.08306   0.22703    0.77595   1.00
C3       0.08306    0.22405    0.77297   1.00
H1       -0.02888   0.28833    0.69904   1.00
H1       0.02888    0.30096    0.71167   1.00
C5       -0.02065   0.20135    0.80287   1.00
C5       0.02065    0.19713    0.79865   1.00
H1       -0.09886   0.28986    0.70138   1.00
H1       0.09886    0.29862    0.71014   1.00
H1       -0.10053   0.20952    0.79538   1.00
H1       0.10053    0.20462    0.79048   1.00
C6       -0.04234   0.18112    0.83622   1.00
C6       0.04234    0.16378    0.81888   1.00
H2       -0.02358   0.17931    0.86256   1.00
H2       -0.06737   0.19855    0.84671   1.00
C6       -0.05724   0.14071    0.82371   1.00
H2       0.02358    0.13744    0.82069   1.00
H2       0.06737    0.15329    0.80145   1.00
C6       0.05724    0.17629    0.85929   1.00
H2       -0.03274   0.12188    0.81378   1.00
C6       -0.07832   0.12069    0.85745   1.00
H2       -0.07760   0.14373    0.79856   1.00
C6       0.07832    0.14255    0.87931   1.00
H2       0.07760    0.20144    0.85627   1.00
H2       0.03274    0.18622    0.87812   1.00
H2       -0.05822   0.11663    0.88257   1.00
H2       -0.10380   0.13831    0.86702   1.00
H2       -0.08898   0.09157    0.84803   1.00
H2       0.05822    0.11743    0.88337   1.00
H2       0.10380    0.13298    0.86169   1.00
H2       0.08898    0.15197    0.90843   1.00
C4       0.52067    0.24945    0.75055   1.00
C4       0.47933    0.25055    0.74945   1.00
C3       0.54244    0.27172    0.77801   1.00
C3       0.45756    0.27801    0.77172   1.00
C4       0.54150    0.22586    0.72352   1.00
C4       0.45850    0.22352    0.72586   1.00
C2       0.60352    0.25046    0.75043   1.00
C2       0.39648    0.25043    0.75046   1.00
C3       0.58310    0.27236    0.77755   1.00
C3       0.41690    0.27755    0.77236   1.00
C3       0.58306    0.22703    0.72405   1.00
C3       0.41694    0.22405    0.72703   1.00
H1       0.52888    0.28833    0.80096   1.00
H1       0.47112    0.30096    0.78833   1.00
C5       0.52065    0.20135    0.69713   1.00
C5       0.47935    0.19713    0.70135   1.00
H1       0.59886    0.28986    0.79862   1.00
H1       0.40114    0.29862    0.78986   1.00
H1       0.60053    0.20952    0.70462   1.00
H1       0.39947    0.20462    0.70952   1.00
C6       0.54234    0.18112    0.66378   1.00
C6       0.45766    0.16378    0.68112   1.00
H2       0.52358    0.17931    0.63744   1.00
H2       0.56737    0.19855    0.65329   1.00
C6       0.55724    0.14071    0.67629   1.00
H2       0.47642    0.13744    0.67931   1.00
H2       0.43263    0.15329    0.69855   1.00
C6       0.44276    0.17629    0.64071   1.00
H2       0.53274    0.12188    0.68622   1.00
C6       0.57832    0.12069    0.64255   1.00
H2       0.57760    0.14373    0.70144   1.00
C6       0.42168    0.14255    0.62069   1.00
H2       0.42240    0.20144    0.64373   1.00
H2       0.46726    0.18622    0.62188   1.00
H2       0.55822    0.11663    0.61743   1.00
H2       0.60380    0.13831    0.63298   1.00
H2       0.58898    0.09157    0.65197   1.00
H2       0.44178    0.11743    0.61663   1.00
H2       0.39620    0.13298    0.63831   1.00
H2       0.41102    0.15197    0.59157   1.00
C4       0.24945    -0.02067   0.74945   1.00
C4       0.25055    0.02067    0.75055   1.00
C3       0.22199    -0.04244   0.77172   1.00
C3       0.22828    0.04244    0.77801   1.00
C4       0.27648    -0.04150   0.72586   1.00
C4       0.27414    0.04150    0.72352   1.00
C2       0.24957    -0.10352   0.75046   1.00
C2       0.24954    0.10352    0.75043   1.00
C3       0.22245    -0.08310   0.77236   1.00
C3       0.22764    0.08310    0.77755   1.00
C3       0.27595    -0.08306   0.72703   1.00
C3       0.27297    0.08306    0.72405   1.00
H1       0.19904    -0.02888   0.78833   1.00
H1       0.21167    0.02888    0.80096   1.00
C5       0.30287    -0.02065   0.70135   1.00
C5       0.29865    0.02065    0.69713   1.00
H1       0.20138    -0.09886   0.78986   1.00
H1       0.21014    0.09886    0.79862   1.00
H1       0.29538    -0.10053   0.70952   1.00
H1       0.29048    0.10053    0.70462   1.00
C6       0.33622    -0.04234   0.68112   1.00
C6       0.31888    0.04234    0.66378   1.00
H2       0.36256    -0.02358   0.67931   1.00
H2       0.34671    -0.06737   0.69855   1.00
C6       0.32371    -0.05724   0.64071   1.00
H2       0.32069    0.02358    0.63744   1.00
H2       0.30145    0.06737    0.65329   1.00
C6       0.35929    0.05724    0.67629   1.00
H2       0.31378    -0.03274   0.62188   1.00
C6       0.35745    -0.07832   0.62069   1.00
H2       0.29856    -0.07760   0.64373   1.00
C6       0.37931    0.07832    0.64255   1.00
H2       0.35627    0.07760    0.70144   1.00
H2       0.37812    0.03274    0.68622   1.00
H2       0.38257    -0.05822   0.61663   1.00
H2       0.36702    -0.10380   0.63831   1.00
H2       0.34803    -0.08898   0.59157   1.00
H2       0.38337    0.05822    0.61743   1.00
H2       0.36169    0.10380    0.63298   1.00
H2       0.40843    0.08898    0.65197   1.00
C4       0.24945    0.24945    0.47933   1.00
C4       0.25055    0.25055    0.52067   1.00
C3       0.27172    0.22199    0.45756   1.00
C3       0.27801    0.22828    0.54244   1.00
C4       0.22586    0.27648    0.45850   1.00
C4       0.22352    0.27414    0.54150   1.00
C2       0.25046    0.24957    0.39648   1.00
C2       0.25043    0.24954    0.60352   1.00
C3       0.27236    0.22245    0.41690   1.00
C3       0.27755    0.22764    0.58310   1.00
C3       0.22703    0.27595    0.41694   1.00
C3       0.22405    0.27297    0.58306   1.00
H1       0.28833    0.19904    0.47112   1.00
H1       0.30096    0.21167    0.52888   1.00
C5       0.20135    0.30287    0.47935   1.00
C5       0.19713    0.29865    0.52065   1.00
H1       0.28986    0.20138    0.40114   1.00
H1       0.29862    0.21014    0.59886   1.00
H1       0.20952    0.29538    0.39947   1.00
H1       0.20462    0.29048    0.60053   1.00
C6       0.18112    0.33622    0.45766   1.00
C6       0.16378    0.31888    0.54234   1.00
H2       0.17931    0.36256    0.47642   1.00
H2       0.19855    0.34671    0.43263   1.00
C6       0.14071    0.32371    0.44276   1.00
H2       0.13744    0.32069    0.52358   1.00
H2       0.15329    0.30145    0.56737   1.00
C6       0.17629    0.35929    0.55724   1.00
H2       0.12188    0.31378    0.46726   1.00
C6       0.12069    0.35745    0.42168   1.00
H2       0.14373    0.29856    0.42240   1.00
C6       0.14255    0.37931    0.57832   1.00
H2       0.20144    0.35627    0.57760   1.00
H2       0.18622    0.37812    0.53274   1.00
H2       0.11663    0.38257    0.44178   1.00
H2       0.13831    0.36702    0.39620   1.00
H2       0.09157    0.34803    0.41102   1.00
H2       0.11743    0.38337    0.55822   1.00
H2       0.13298    0.36169    0.60380   1.00
H2       0.15197    0.40843    0.58898   1.00
C4       0.24945    0.75055    0.52067   1.00
C4       0.25055    0.74945    0.47933   1.00
C3       0.27172    0.77801    0.54244   1.00
C3       0.27801    0.77172    0.45756   1.00
C4       0.22586    0.72352    0.54150   1.00
C4       0.22352    0.72586    0.45850   1.00
C2       0.25046    0.75043    0.60352   1.00
C2       0.25043    0.75046    0.39648   1.00
C3       0.27236    0.77755    0.58310   1.00
C3       0.27755    0.77236    0.41690   1.00
C3       0.22703    0.72405    0.58306   1.00
C3       0.22405    0.72703    0.41694   1.00
H1       0.28833    0.80096    0.52888   1.00
H1       0.30096    0.78833    0.47112   1.00
C5       0.20135    0.69713    0.52065   1.00
C5       0.19713    0.70135    0.47935   1.00
H1       0.28986    0.79862    0.59886   1.00
H1       0.29862    0.78986    0.40114   1.00
H1       0.20952    0.70462    0.60053   1.00
H1       0.20462    0.70952    0.39947   1.00
C6       0.18112    0.66378    0.54234   1.00
C6       0.16378    0.68112    0.45766   1.00
H2       0.17931    0.63744    0.52358   1.00
H2       0.19855    0.65329    0.56737   1.00
C6       0.14071    0.67629    0.55724   1.00
H2       0.13744    0.67931    0.47642   1.00
H2       0.15329    0.69855    0.43263   1.00
C6       0.17629    0.64071    0.44276   1.00
H2       0.12188    0.68622    0.53274   1.00
C6       0.12069    0.64255    0.57832   1.00
H2       0.14373    0.70144    0.57760   1.00
C6       0.14255    0.62069    0.42168   1.00
H2       0.20144    0.64373    0.42240   1.00
H2       0.18622    0.62188    0.46726   1.00
H2       0.11663    0.61743    0.55822   1.00
H2       0.13831    0.63298    0.60380   1.00
H2       0.09157    0.65197    0.58898   1.00
H2       0.11743    0.61663    0.44178   1.00
H2       0.13298    0.63831    0.39620   1.00
H2       0.15197    0.59157    0.41102   1.00
C4       0.25055    1.02067    0.24945   1.00
C4       0.24945    0.97933    0.25055   1.00
C3       0.27801    1.04244    0.27172   1.00
C3       0.27172    0.95756    0.27801   1.00
C4       0.22352    1.04150    0.22586   1.00
C4       0.22586    0.95850    0.22352   1.00
C2       0.25043    1.10352    0.25046   1.00
C2       0.25046    0.89648    0.25043   1.00
C3       0.27755    1.08310    0.27236   1.00
C3       0.27236    0.91690    0.27755   1.00
C3       0.22405    1.08306    0.22703   1.00
C3       0.22703    0.91694    0.22405   1.00
H1       0.30096    1.02888    0.28833   1.00
H1       0.28833    0.97112    0.30096   1.00
C5       0.19713    1.02065    0.20135   1.00
C5       0.20135    0.97935    0.19713   1.00
H1       0.29862    1.09886    0.28986   1.00
H1       0.28986    0.90114    0.29862   1.00
H1       0.20462    1.10053    0.20952   1.00
H1       0.20952    0.89947    0.20462   1.00
C6       0.16378    1.04234    0.18112   1.00
C6       0.18112    0.95766    0.16378   1.00
H2       0.13744    1.02358    0.17931   1.00
H2       0.15329    1.06737    0.19855   1.00
C6       0.17629    1.05724    0.14071   1.00
H2       0.17931    0.97642    0.13744   1.00
H2       0.19855    0.93263    0.15329   1.00
C6       0.14071    0.94276    0.17629   1.00
H2       0.18622    1.03274    0.12188   1.00
C6       0.14255    1.07832    0.12069   1.00
H2       0.20144    1.07760    0.14373   1.00
C6       0.12069    0.92168    0.14255   1.00
H2       0.14373    0.92240    0.20144   1.00
H2       0.12188    0.96726    0.18622   1.00
H2       0.11743    1.05822    0.11663   1.00
H2       0.13298    1.10380    0.13831   1.00
H2       0.15197    1.08898    0.09157   1.00
H2       0.11663    0.94178    0.11743   1.00
H2       0.13831    0.89620    0.13298   1.00
H2       0.09157    0.91102    0.15197   1.00
C4       -0.02067   0.74945    0.24945   1.00
C4       0.02067    0.75055    0.25055   1.00
C3       -0.04244   0.77172    0.22199   1.00
C3       0.04244    0.77801    0.22828   1.00
C4       -0.04150   0.72586    0.27648   1.00
C4       0.04150    0.72352    0.27414   1.00
C2       -0.10352   0.75046    0.24957   1.00
C2       0.10352    0.75043    0.24954   1.00
C3       -0.08310   0.77236    0.22245   1.00
C3       0.08310    0.77755    0.22764   1.00
C3       -0.08306   0.72703    0.27595   1.00
C3       0.08306    0.72405    0.27297   1.00
H1       -0.02888   0.78833    0.19904   1.00
H1       0.02888    0.80096    0.21167   1.00
C5       -0.02065   0.70135    0.30287   1.00
C5       0.02065    0.69713    0.29865   1.00
H1       -0.09886   0.78986    0.20138   1.00
H1       0.09886    0.79862    0.21014   1.00
H1       -0.10053   0.70952    0.29538   1.00
H1       0.10053    0.70462    0.29048   1.00
C6       -0.04234   0.68112    0.33622   1.00
C6       0.04234    0.66378    0.31888   1.00
H2       -0.02358   0.67931    0.36256   1.00
H2       -0.06737   0.69855    0.34671   1.00
C6       -0.05724   0.64071    0.32371   1.00
H2       0.02358    0.63744    0.32069   1.00
H2       0.06737    0.65329    0.30145   1.00
C6       0.05724    0.67629    0.35929   1.00
H2       -0.03274   0.62188    0.31378   1.00
C6       -0.07832   0.62069    0.35745   1.00
H2       -0.07760   0.64373    0.29856   1.00
C6       0.07832    0.64255    0.37931   1.00
H2       0.07760    0.70144    0.35627   1.00
H2       0.03274    0.68622    0.37812   1.00
H2       -0.05822   0.61663    0.38257   1.00
H2       -0.10380   0.63831    0.36702   1.00
H2       -0.08898   0.59157    0.34803   1.00
H2       0.05822    0.61743    0.38337   1.00
H2       0.10380    0.63298    0.36169   1.00
H2       0.08898    0.65197    0.40843   1.00
C4       0.52067    0.74945    0.25055   1.00
C4       0.47933    0.75055    0.24945   1.00
C3       0.54244    0.77172    0.27801   1.00
C3       0.45756    0.77801    0.27172   1.00
C4       0.54150    0.72586    0.22352   1.00
C4       0.45850    0.72352    0.22586   1.00
C2       0.60352    0.75046    0.25043   1.00
C2       0.39648    0.75043    0.25046   1.00
C3       0.58310    0.77236    0.27755   1.00
C3       0.41690    0.77755    0.27236   1.00
C3       0.58306    0.72703    0.22405   1.00
C3       0.41694    0.72405    0.22703   1.00
H1       0.52888    0.78833    0.30096   1.00
H1       0.47112    0.80096    0.28833   1.00
C5       0.52065    0.70135    0.19713   1.00
C5       0.47935    0.69713    0.20135   1.00
H1       0.59886    0.78986    0.29862   1.00
H1       0.40114    0.79862    0.28986   1.00
H1       0.60053    0.70952    0.20462   1.00
H1       0.39947    0.70462    0.20952   1.00
C6       0.54234    0.68112    0.16378   1.00
C6       0.45766    0.66378    0.18112   1.00
H2       0.52358    0.67931    0.13744   1.00
H2       0.56737    0.69855    0.15329   1.00
C6       0.55724    0.64071    0.17629   1.00
H2       0.47642    0.63744    0.17931   1.00
H2       0.43263    0.65329    0.19855   1.00
C6       0.44276    0.67629    0.14071   1.00
H2       0.53274    0.62188    0.18622   1.00
C6       0.57832    0.62069    0.14255   1.00
H2       0.57760    0.64373    0.20144   1.00
C6       0.42168    0.64255    0.12069   1.00
H2       0.42240    0.70144    0.14373   1.00
H2       0.46726    0.68622    0.12188   1.00
H2       0.55822    0.61663    0.11743   1.00
H2       0.60380    0.63831    0.13298   1.00
H2       0.58898    0.59157    0.15197   1.00
H2       0.44178    0.61743    0.11663   1.00
H2       0.39620    0.63298    0.13831   1.00
H2       0.41102    0.65197    0.09157   1.00
C4       0.24945    0.47933    0.24945   1.00
C4       0.25055    0.52067    0.25055   1.00
C3       0.22199    0.45756    0.27172   1.00
C3       0.22828    0.54244    0.27801   1.00
C4       0.27648    0.45850    0.22586   1.00
C4       0.27414    0.54150    0.22352   1.00
C2       0.24957    0.39648    0.25046   1.00
C2       0.24954    0.60352    0.25043   1.00
C3       0.22245    0.41690    0.27236   1.00
C3       0.22764    0.58310    0.27755   1.00
C3       0.27595    0.41694    0.22703   1.00
C3       0.27297    0.58306    0.22405   1.00
H1       0.19904    0.47112    0.28833   1.00
H1       0.21167    0.52888    0.30096   1.00
C5       0.30287    0.47935    0.20135   1.00
C5       0.29865    0.52065    0.19713   1.00
H1       0.20138    0.40114    0.28986   1.00
H1       0.21014    0.59886    0.29862   1.00
H1       0.29538    0.39947    0.20952   1.00
H1       0.29048    0.60053    0.20462   1.00
C6       0.33622    0.45766    0.18112   1.00
C6       0.31888    0.54234    0.16378   1.00
H2       0.36256    0.47642    0.17931   1.00
H2       0.34671    0.43263    0.19855   1.00
C6       0.32371    0.44276    0.14071   1.00
H2       0.32069    0.52358    0.13744   1.00
H2       0.30145    0.56737    0.15329   1.00
C6       0.35929    0.55724    0.17629   1.00
H2       0.31378    0.46726    0.12188   1.00
C6       0.35745    0.42168    0.12069   1.00
H2       0.29856    0.42240    0.14373   1.00
C6       0.37931    0.57832    0.14255   1.00
H2       0.35627    0.57760    0.20144   1.00
H2       0.37812    0.53274    0.18622   1.00
H2       0.38257    0.44178    0.11663   1.00
H2       0.36702    0.39620    0.13831   1.00
H2       0.34803    0.41102    0.09157   1.00
H2       0.38337    0.55822    0.11743   1.00
H2       0.36169    0.60380    0.13298   1.00
H2       0.40843    0.58898    0.15197   1.00
C4       0.24945    0.74945    -0.02067   1.00
C4       0.25055    0.75055    0.02067   1.00
C3       0.27172    0.72199    -0.04244   1.00
C3       0.27801    0.72828    0.04244   1.00
C4       0.22586    0.77648    -0.04150   1.00
C4       0.22352    0.77414    0.04150   1.00
C2       0.25046    0.74957    -0.10352   1.00
C2       0.25043    0.74954    0.10352   1.00
C3       0.27236    0.72245    -0.08310   1.00
C3       0.27755    0.72764    0.08310   1.00
C3       0.22703    0.77595    -0.08306   1.00
C3       0.22405    0.77297    0.08306   1.00
H1       0.28833    0.69904    -0.02888   1.00
H1       0.30096    0.71167    0.02888   1.00
C5       0.20135    0.80287    -0.02065   1.00
C5       0.19713    0.79865    0.02065   1.00
H1       0.28986    0.70138    -0.09886   1.00
H1       0.29862    0.71014    0.09886   1.00
H1       0.20952    0.79538    -0.10053   1.00
H1       0.20462    0.79048    0.10053   1.00
C6       0.18112    0.83622    -0.04234   1.00
C6       0.16378    0.81888    0.04234   1.00
H2       0.17931    0.86256    -0.02358   1.00
H2       0.19855    0.84671    -0.06737   1.00
C6       0.14071    0.82371    -0.05724   1.00
H2       0.13744    0.82069    0.02358   1.00
H2       0.15329    0.80145    0.06737   1.00
C6       0.17629    0.85929    0.05724   1.00
H2       0.12188    0.81378    -0.03274   1.00
C6       0.12069    0.85745    -0.07832   1.00
H2       0.14373    0.79856    -0.07760   1.00
C6       0.14255    0.87931    0.07832   1.00
H2       0.20144    0.85627    0.07760   1.00
H2       0.18622    0.87812    0.03274   1.00
H2       0.11663    0.88257    -0.05822   1.00
H2       0.13831    0.86702    -0.10380   1.00
H2       0.09157    0.84803    -0.08898   1.00
H2       0.11743    0.88337    0.05822   1.00
H2       0.13298    0.86169    0.10380   1.00
H2       0.15197    0.90843    0.08898   1.00
C4       0.74945    0.25055    0.52067   1.00
C4       0.75055    0.24945    0.47933   1.00
C3       0.77172    0.27801    0.54244   1.00
C3       0.77801    0.27172    0.45756   1.00
C4       0.72586    0.22352    0.54150   1.00
C4       0.72352    0.22586    0.45850   1.00
C2       0.75046    0.25043    0.60352   1.00
C2       0.75043    0.25046    0.39648   1.00
C3       0.77236    0.27755    0.58310   1.00
C3       0.77755    0.27236    0.41690   1.00
C3       0.72703    0.22405    0.58306   1.00
C3       0.72405    0.22703    0.41694   1.00
H1       0.78833    0.30096    0.52888   1.00
H1       0.80096    0.28833    0.47112   1.00
C5       0.70135    0.19713    0.52065   1.00
C5       0.69713    0.20135    0.47935   1.00
H1       0.78986    0.29862    0.59886   1.00
H1       0.79862    0.28986    0.40114   1.00
H1       0.70952    0.20462    0.60053   1.00
H1       0.70462    0.20952    0.39947   1.00
C6       0.68112    0.16378    0.54234   1.00
C6       0.66378    0.18112    0.45766   1.00
H2       0.67931    0.13744    0.52358   1.00
H2       0.69855    0.15329    0.56737   1.00
C6       0.64071    0.17629    0.55724   1.00
H2       0.63744    0.17931    0.47642   1.00
H2       0.65329    0.19855    0.43263   1.00
C6       0.67629    0.14071    0.44276   1.00
H2       0.62188    0.18622    0.53274   1.00
C6       0.62069    0.14255    0.57832   1.00
H2       0.64373    0.20144    0.57760   1.00
C6       0.64255    0.12069    0.42168   1.00
H2       0.70144    0.14373    0.42240   1.00
H2       0.68622    0.12188    0.46726   1.00
H2       0.61663    0.11743    0.55822   1.00
H2       0.63831    0.13298    0.60380   1.00
H2       0.59157    0.15197    0.58898   1.00
H2       0.61743    0.11663    0.44178   1.00
H2       0.63298    0.13831    0.39620   1.00
H2       0.65197    0.09157    0.41102   1.00
C4       0.75055    0.52067    0.24945   1.00
C4       0.74945    0.47933    0.25055   1.00
C3       0.77801    0.54244    0.27172   1.00
C3       0.77172    0.45756    0.27801   1.00
C4       0.72352    0.54150    0.22586   1.00
C4       0.72586    0.45850    0.22352   1.00
C2       0.75043    0.60352    0.25046   1.00
C2       0.75046    0.39648    0.25043   1.00
C3       0.77755    0.58310    0.27236   1.00
C3       0.77236    0.41690    0.27755   1.00
C3       0.72405    0.58306    0.22703   1.00
C3       0.72703    0.41694    0.22405   1.00
H1       0.80096    0.52888    0.28833   1.00
H1       0.78833    0.47112    0.30096   1.00
C5       0.69713    0.52065    0.20135   1.00
C5       0.70135    0.47935    0.19713   1.00
H1       0.79862    0.59886    0.28986   1.00
H1       0.78986    0.40114    0.29862   1.00
H1       0.70462    0.60053    0.20952   1.00
H1       0.70952    0.39947    0.20462   1.00
C6       0.66378    0.54234    0.18112   1.00
C6       0.68112    0.45766    0.16378   1.00
H2       0.63744    0.52358    0.17931   1.00
H2       0.65329    0.56737    0.19855   1.00
C6       0.67629    0.55724    0.14071   1.00
H2       0.67931    0.47642    0.13744   1.00
H2       0.69855    0.43263    0.15329   1.00
C6       0.64071    0.44276    0.17629   1.00
H2       0.68622    0.53274    0.12188   1.00
C6       0.64255    0.57832    0.12069   1.00
H2       0.70144    0.57760    0.14373   1.00
C6       0.62069    0.42168    0.14255   1.00
H2       0.64373    0.42240    0.20144   1.00
H2       0.62188    0.46726    0.18622   1.00
H2       0.61743    0.55822    0.11663   1.00
H2       0.63298    0.60380    0.13831   1.00
H2       0.65197    0.58898    0.09157   1.00
H2       0.61663    0.44178    0.11743   1.00
H2       0.63831    0.39620    0.13298   1.00
H2       0.59157    0.41102    0.15197   1.00
C4       0.47933    0.24945    0.24945   1.00
C4       0.52067    0.25055    0.25055   1.00
C3       0.45756    0.27172    0.22199   1.00
C3       0.54244    0.27801    0.22828   1.00
C4       0.45850    0.22586    0.27648   1.00
C4       0.54150    0.22352    0.27414   1.00
C2       0.39648    0.25046    0.24957   1.00
C2       0.60352    0.25043    0.24954   1.00
C3       0.41690    0.27236    0.22245   1.00
C3       0.58310    0.27755    0.22764   1.00
C3       0.41694    0.22703    0.27595   1.00
C3       0.58306    0.22405    0.27297   1.00
H1       0.47112    0.28833    0.19904   1.00
H1       0.52888    0.30096    0.21167   1.00
C5       0.47935    0.20135    0.30287   1.00
C5       0.52065    0.19713    0.29865   1.00
H1       0.40114    0.28986    0.20138   1.00
H1       0.59886    0.29862    0.21014   1.00
H1       0.39947    0.20952    0.29538   1.00
H1       0.60053    0.20462    0.29048   1.00
C6       0.45766    0.18112    0.33622   1.00
C6       0.54234    0.16378    0.31888   1.00
H2       0.47642    0.17931    0.36256   1.00
H2       0.43263    0.19855    0.34671   1.00
C6       0.44276    0.14071    0.32371   1.00
H2       0.52358    0.13744    0.32069   1.00
H2       0.56737    0.15329    0.30145   1.00
C6       0.55724    0.17629    0.35929   1.00
H2       0.46726    0.12188    0.31378   1.00
C6       0.42168    0.12069    0.35745   1.00
H2       0.42240    0.14373    0.29856   1.00
C6       0.57832    0.14255    0.37931   1.00
H2       0.57760    0.20144    0.35627   1.00
H2       0.53274    0.18622    0.37812   1.00
H2       0.44178    0.11663    0.38257   1.00
H2       0.39620    0.13831    0.36702   1.00
H2       0.41102    0.09157    0.34803   1.00
H2       0.55822    0.11743    0.38337   1.00
H2       0.60380    0.13298    0.36169   1.00
H2       0.58898    0.15197    0.40843   1.00
C4       1.02067    0.24945    0.25055   1.00
C4       0.97933    0.25055    0.24945   1.00
C3       1.04244    0.27172    0.27801   1.00
C3       0.95756    0.27801    0.27172   1.00
C4       1.04150    0.22586    0.22352   1.00
C4       0.95850    0.22352    0.22586   1.00
C2       1.10352    0.25046    0.25043   1.00
C2       0.89648    0.25043    0.25046   1.00
C3       1.08310    0.27236    0.27755   1.00
C3       0.91690    0.27755    0.27236   1.00
C3       1.08306    0.22703    0.22405   1.00
C3       0.91694    0.22405    0.22703   1.00
H1       1.02888    0.28833    0.30096   1.00
H1       0.97112    0.30096    0.28833   1.00
C5       1.02065    0.20135    0.19713   1.00
C5       0.97935    0.19713    0.20135   1.00
H1       1.09886    0.28986    0.29862   1.00
H1       0.90114    0.29862    0.28986   1.00
H1       1.10053    0.20952    0.20462   1.00
H1       0.89947    0.20462    0.20952   1.00
C6       1.04234    0.18112    0.16378   1.00
C6       0.95766    0.16378    0.18112   1.00
H2       1.02358    0.17931    0.13744   1.00
H2       1.06737    0.19855    0.15329   1.00
C6       1.05724    0.14071    0.17629   1.00
H2       0.97642    0.13744    0.17931   1.00
H2       0.93263    0.15329    0.19855   1.00
C6       0.94276    0.17629    0.14071   1.00
H2       1.03274    0.12188    0.18622   1.00
C6       1.07832    0.12069    0.14255   1.00
H2       1.07760    0.14373    0.20144   1.00
C6       0.92168    0.14255    0.12069   1.00
H2       0.92240    0.20144    0.14373   1.00
H2       0.96726    0.18622    0.12188   1.00
H2       1.05822    0.11663    0.11743   1.00
H2       1.10380    0.13831    0.13298   1.00
H2       1.08898    0.09157    0.15197   1.00
H2       0.94178    0.11743    0.11663   1.00
H2       0.89620    0.13298    0.13831   1.00
H2       0.91102    0.15197    0.09157   1.00
C4       0.74945    -0.02067   0.24945   1.00
C4       0.75055    0.02067    0.25055   1.00
C3       0.72199    -0.04244   0.27172   1.00
C3       0.72828    0.04244    0.27801   1.00
C4       0.77648    -0.04150   0.22586   1.00
C4       0.77414    0.04150    0.22352   1.00
C2       0.74957    -0.10352   0.25046   1.00
C2       0.74954    0.10352    0.25043   1.00
C3       0.72245    -0.08310   0.27236   1.00
C3       0.72764    0.08310    0.27755   1.00
C3       0.77595    -0.08306   0.22703   1.00
C3       0.77297    0.08306    0.22405   1.00
H1       0.69904    -0.02888   0.28833   1.00
H1       0.71167    0.02888    0.30096   1.00
C5       0.80287    -0.02065   0.20135   1.00
C5       0.79865    0.02065    0.19713   1.00
H1       0.70138    -0.09886   0.28986   1.00
H1       0.71014    0.09886    0.29862   1.00
H1       0.79538    -0.10053   0.20952   1.00
H1       0.79048    0.10053    0.20462   1.00
C6       0.83622    -0.04234   0.18112   1.00
C6       0.81888    0.04234    0.16378   1.00
H2       0.86256    -0.02358   0.17931   1.00
H2       0.84671    -0.06737   0.19855   1.00
C6       0.82371    -0.05724   0.14071   1.00
H2       0.82069    0.02358    0.13744   1.00
H2       0.80145    0.06737    0.15329   1.00
C6       0.85929    0.05724    0.17629   1.00
H2       0.81378    -0.03274   0.12188   1.00
C6       0.85745    -0.07832   0.12069   1.00
H2       0.79856    -0.07760   0.14373   1.00
C6       0.87931    0.07832    0.14255   1.00
H2       0.85627    0.07760    0.20144   1.00
H2       0.87812    0.03274    0.18622   1.00
H2       0.88257    -0.05822   0.11663   1.00
H2       0.86702    -0.10380   0.13831   1.00
H2       0.84803    -0.08898   0.09157   1.00
H2       0.88337    0.05822    0.11743   1.00
H2       0.86169    0.10380    0.13298   1.00
H2       0.90843    0.08898    0.15197   1.00
C4       0.74945    0.24945    -0.02067   1.00
C4       0.75055    0.25055    0.02067   1.00
C3       0.77172    0.22199    -0.04244   1.00
C3       0.77801    0.22828    0.04244   1.00
C4       0.72586    0.27648    -0.04150   1.00
C4       0.72352    0.27414    0.04150   1.00
C2       0.75046    0.24957    -0.10352   1.00
C2       0.75043    0.24954    0.10352   1.00
C3       0.77236    0.22245    -0.08310   1.00
C3       0.77755    0.22764    0.08310   1.00
C3       0.72703    0.27595    -0.08306   1.00
C3       0.72405    0.27297    0.08306   1.00
H1       0.78833    0.19904    -0.02888   1.00
H1       0.80096    0.21167    0.02888   1.00
C5       0.70135    0.30287    -0.02065   1.00
C5       0.69713    0.29865    0.02065   1.00
H1       0.78986    0.20138    -0.09886   1.00
H1       0.79862    0.21014    0.09886   1.00
H1       0.70952    0.29538    -0.10053   1.00
H1       0.70462    0.29048    0.10053   1.00
C6       0.68112    0.33622    -0.04234   1.00
C6       0.66378    0.31888    0.04234   1.00
H2       0.67931    0.36256    -0.02358   1.00
H2       0.69855    0.34671    -0.06737   1.00
C6       0.64071    0.32371    -0.05724   1.00
H2       0.63744    0.32069    0.02358   1.00
H2       0.65329    0.30145    0.06737   1.00
C6       0.67629    0.35929    0.05724   1.00
H2       0.62188    0.31378    -0.03274   1.00
C6       0.62069    0.35745    -0.07832   1.00
H2       0.64373    0.29856    -0.07760   1.00
C6       0.64255    0.37931    0.07832   1.00
H2       0.70144    0.35627    0.07760   1.00
H2       0.68622    0.37812    0.03274   1.00
H2       0.61663    0.38257    -0.05822   1.00
H2       0.63831    0.36702    -0.10380   1.00
H2       0.59157    0.34803    -0.08898   1.00
H2       0.61743    0.38337    0.05822   1.00
H2       0.63298    0.36169    0.10380   1.00
H2       0.65197    0.40843    0.08898   1.00
C4       0.99945    1.00055    1.27067   1.00
C4       1.00055    0.99945    1.22933   1.00
C3       1.02172    1.02801    1.29244   1.00
C3       1.02801    1.02172    1.20756   1.00
C4       0.97586    0.97352    1.29150   1.00
C4       0.97352    0.97586    1.20850   1.00
C2       1.00046    1.00043    1.35352   1.00
C2       1.00043    1.00046    1.14648   1.00
C3       1.02236    1.02755    1.33310   1.00
C3       1.02755    1.02236    1.16690   1.00
C3       0.97703    0.97405    1.33306   1.00
C3       0.97405    0.97703    1.16694   1.00
H1       1.03833    1.05096    1.27888   1.00
H1       1.05096    1.03833    1.22112   1.00
C5       0.95135    0.94713    1.27065   1.00
C5       0.94713    0.95135    1.22935   1.00
H1       1.03986    1.04862    1.34886   1.00
H1       1.04862    1.03986    1.15114   1.00
H1       0.95952    0.95462    1.35053   1.00
H1       0.95462    0.95952    1.14947   1.00
C6       0.93112    0.91378    1.29234   1.00
C6       0.91378    0.93112    1.20766   1.00
H2       0.92931    0.88744    1.27358   1.00
H2       0.94855    0.90329    1.31737   1.00
C6       0.89071    0.92629    1.30724   1.00
H2       0.88744    0.92931    1.22642   1.00
H2       0.90329    0.94855    1.18263   1.00
C6       0.92629    0.89071    1.19276   1.00
H2       0.87188    0.93622    1.28274   1.00
C6       0.87069    0.89255    1.32832   1.00
H2       0.89373    0.95144    1.32760   1.00
C6       0.89255    0.87069    1.17168   1.00
H2       0.95144    0.89373    1.17240   1.00
H2       0.93622    0.87188    1.21726   1.00
H2       0.86663    0.86743    1.30822   1.00
H2       0.88831    0.88298    1.35380   1.00
H2       0.84157    0.90197    1.33898   1.00
H2       0.86743    0.86663    1.19178   1.00
H2       0.88298    0.88831    1.14620   1.00
H2       0.90197    0.84157    1.16102   1.00
C4       1.00055    1.27067    0.99945   1.00
C4       0.99945    1.22933    1.00055   1.00
C3       1.02801    1.29244    1.02172   1.00
C3       1.02172    1.20756    1.02801   1.00
C4       0.97352    1.29150    0.97586   1.00
C4       0.97586    1.20850    0.97352   1.00
C2       1.00043    1.35352    1.00046   1.00
C2       1.00046    1.14648    1.00043   1.00
C3       1.02755    1.33310    1.02236   1.00
C3       1.02236    1.16690    1.02755   1.00
C3       0.97405    1.33306    0.97703   1.00
C3       0.97703    1.16694    0.97405   1.00
H1       1.05096    1.27888    1.03833   1.00
H1       1.03833    1.22112    1.05096   1.00
C5       0.94713    1.27065    0.95135   1.00
C5       0.95135    1.22935    0.94713   1.00
H1       1.04862    1.34886    1.03986   1.00
H1       1.03986    1.15114    1.04862   1.00
H1       0.95462    1.35053    0.95952   1.00
H1       0.95952    1.14947    0.95462   1.00
C6       0.91378    1.29234    0.93112   1.00
C6       0.93112    1.20766    0.91378   1.00
H2       0.88744    1.27358    0.92931   1.00
H2       0.90329    1.31737    0.94855   1.00
C6       0.92629    1.30724    0.89071   1.00
H2       0.92931    1.22642    0.88744   1.00
H2       0.94855    1.18263    0.90329   1.00
C6       0.89071    1.19276    0.92629   1.00
H2       0.93622    1.28274    0.87188   1.00
C6       0.89255    1.32832    0.87069   1.00
H2       0.95144    1.32760    0.89373   1.00
C6       0.87069    1.17168    0.89255   1.00
H2       0.89373    1.17240    0.95144   1.00
H2       0.87188    1.21726    0.93622   1.00
H2       0.86743    1.30822    0.86663   1.00
H2       0.88298    1.35380    0.88831   1.00
H2       0.90197    1.33898    0.84157   1.00
H2       0.86663    1.19178    0.86743   1.00
H2       0.88831    1.14620    0.88298   1.00
H2       0.84157    1.16102    0.90197   1.00
C4       0.72933    0.99945    0.99945   1.00
C4       0.77067    1.00055    1.00055   1.00
C3       0.70756    1.02172    0.97199   1.00
C3       0.79244    1.02801    0.97828   1.00
C4       0.70850    0.97586    1.02648   1.00
C4       0.79150    0.97352    1.02414   1.00
C2       0.64648    1.00046    0.99957   1.00
C2       0.85352    1.00043    0.99954   1.00
C3       0.66690    1.02236    0.97245   1.00
C3       0.83310    1.02755    0.97764   1.00
C3       0.66694    0.97703    1.02595   1.00
C3       0.83306    0.97405    1.02297   1.00
H1       0.72112    1.03833    0.94904   1.00
H1       0.77888    1.05096    0.96167   1.00
C5       0.72935    0.95135    1.05287   1.00
C5       0.77065    0.94713    1.04865   1.00
H1       0.65114    1.03986    0.95138   1.00
H1       0.84886    1.04862    0.96014   1.00
H1       0.64947    0.95952    1.04538   1.00
H1       0.85053    0.95462    1.04048   1.00
C6       0.70766    0.93112    1.08622   1.00
C6       0.79234    0.91378    1.06888   1.00
H2       0.72642    0.92931    1.11256   1.00
H2       0.68263    0.94855    1.09671   1.00
C6       0.69276    0.89071    1.07371   1.00
H2       0.77358    0.88744    1.07069   1.00
H2       0.81737    0.90329    1.05145   1.00
C6       0.80724    0.92629    1.10929   1.00
H2       0.71726    0.87188    1.06378   1.00
C6       0.67168    0.87069    1.10745   1.00
H2       0.67240    0.89373    1.04856   1.00
C6       0.82832    0.89255    1.12931   1.00
H2       0.82760    0.95144    1.10627   1.00
H2       0.78274    0.93622    1.12812   1.00
H2       0.69178    0.86663    1.13257   1.00
H2       0.64620    0.88831    1.11702   1.00
H2       0.66102    0.84157    1.09803   1.00
H2       0.80822    0.86743    1.13337   1.00
H2       0.85380    0.88298    1.11169   1.00
H2       0.83898    0.90197    1.15843   1.00
C4       1.27067    0.99945    1.00055   1.00
C4       1.22933    1.00055    0.99945   1.00
C3       1.29244    1.02172    1.02801   1.00
C3       1.20756    1.02801    1.02172   1.00
C4       1.29150    0.97586    0.97352   1.00
C4       1.20850    0.97352    0.97586   1.00
C2       1.35352    1.00046    1.00043   1.00
C2       1.14648    1.00043    1.00046   1.00
C3       1.33310    1.02236    1.02755   1.00
C3       1.16690    1.02755    1.02236   1.00
C3       1.33306    0.97703    0.97405   1.00
C3       1.16694    0.97405    0.97703   1.00
H1       1.27888    1.03833    1.05096   1.00
H1       1.22112    1.05096    1.03833   1.00
C5       1.27065    0.95135    0.94713   1.00
C5       1.22935    0.94713    0.95135   1.00
H1       1.34886    1.03986    1.04862   1.00
H1       1.15114    1.04862    1.03986   1.00
H1       1.35053    0.95952    0.95462   1.00
H1       1.14947    0.95462    0.95952   1.00
C6       1.29234    0.93112    0.91378   1.00
C6       1.20766    0.91378    0.93112   1.00
H2       1.27358    0.92931    0.88744   1.00
H2       1.31737    0.94855    0.90329   1.00
C6       1.30724    0.89071    0.92629   1.00
H2       1.22642    0.88744    0.92931   1.00
H2       1.18263    0.90329    0.94855   1.00
C6       1.19276    0.92629    0.89071   1.00
H2       1.28274    0.87188    0.93622   1.00
C6       1.32832    0.87069    0.89255   1.00
H2       1.32760    0.89373    0.95144   1.00
C6       1.17168    0.89255    0.87069   1.00
H2       1.17240    0.95144    0.89373   1.00
H2       1.21726    0.93622    0.87188   1.00
H2       1.30822    0.86663    0.86743   1.00
H2       1.35380    0.88831    0.88298   1.00
H2       1.33898    0.84157    0.90197   1.00
H2       1.19178    0.86743    0.86663   1.00
H2       1.14620    0.88298    0.88831   1.00
H2       1.16102    0.90197    0.84157   1.00
C4       0.99945    0.72933    0.99945   1.00
C4       1.00055    0.77067    1.00055   1.00
C3       0.97199    0.70756    1.02172   1.00
C3       0.97828    0.79244    1.02801   1.00
C4       1.02648    0.70850    0.97586   1.00
C4       1.02414    0.79150    0.97352   1.00
C2       0.99957    0.64648    1.00046   1.00
C2       0.99954    0.85352    1.00043   1.00
C3       0.97245    0.66690    1.02236   1.00
C3       0.97764    0.83310    1.02755   1.00
C3       1.02595    0.66694    0.97703   1.00
C3       1.02297    0.83306    0.97405   1.00
H1       0.94904    0.72112    1.03833   1.00
H1       0.96167    0.77888    1.05096   1.00
C5       1.05287    0.72935    0.95135   1.00
C5       1.04865    0.77065    0.94713   1.00
H1       0.95138    0.65114    1.03986   1.00
H1       0.96014    0.84886    1.04862   1.00
H1       1.04538    0.64947    0.95952   1.00
H1       1.04048    0.85053    0.95462   1.00
C6       1.08622    0.70766    0.93112   1.00
C6       1.06888    0.79234    0.91378   1.00
H2       1.11256    0.72642    0.92931   1.00
H2       1.09671    0.68263    0.94855   1.00
C6       1.07371    0.69276    0.89071   1.00
H2       1.07069    0.77358    0.88744   1.00
H2       1.05145    0.81737    0.90329   1.00
C6       1.10929    0.80724    0.92629   1.00
H2       1.06378    0.71726    0.87188   1.00
C6       1.10745    0.67168    0.87069   1.00
H2       1.04856    0.67240    0.89373   1.00
C6       1.12931    0.82832    0.89255   1.00
H2       1.10627    0.82760    0.95144   1.00
H2       1.12812    0.78274    0.93622   1.00
H2       1.13257    0.69178    0.86663   1.00
H2       1.11702    0.64620    0.88831   1.00
H2       1.09803    0.66102    0.84157   1.00
H2       1.13337    0.80822    0.86743   1.00
H2       1.11169    0.85380    0.88298   1.00
H2       1.15843    0.83898    0.90197   1.00
C4       0.99945    0.99945    0.72933   1.00
C4       1.00055    1.00055    0.77067   1.00
C3       1.02172    0.97199    0.70756   1.00
C3       1.02801    0.97828    0.79244   1.00
C4       0.97586    1.02648    0.70850   1.00
C4       0.97352    1.02414    0.79150   1.00
C2       1.00046    0.99957    0.64648   1.00
C2       1.00043    0.99954    0.85352   1.00
C3       1.02236    0.97245    0.66690   1.00
C3       1.02755    0.97764    0.83310   1.00
C3       0.97703    1.02595    0.66694   1.00
C3       0.97405    1.02297    0.83306   1.00
H1       1.03833    0.94904    0.72112   1.00
H1       1.05096    0.96167    0.77888   1.00
C5       0.95135    1.05287    0.72935   1.00
C5       0.94713    1.04865    0.77065   1.00
H1       1.03986    0.95138    0.65114   1.00
H1       1.04862    0.96014    0.84886   1.00
H1       0.95952    1.04538    0.64947   1.00
H1       0.95462    1.04048    0.85053   1.00
C6       0.93112    1.08622    0.70766   1.00
C6       0.91378    1.06888    0.79234   1.00
H2       0.92931    1.11256    0.72642   1.00
H2       0.94855    1.09671    0.68263   1.00
C6       0.89071    1.07371    0.69276   1.00
H2       0.88744    1.07069    0.77358   1.00
H2       0.90329    1.05145    0.81737   1.00
C6       0.92629    1.10929    0.80724   1.00
H2       0.87188    1.06378    0.71726   1.00
C6       0.87069    1.10745    0.67168   1.00
H2       0.89373    1.04856    0.67240   1.00
C6       0.89255    1.12931    0.82832   1.00
H2       0.95144    1.10627    0.82760   1.00
H2       0.93622    1.12812    0.78274   1.00
H2       0.86663    1.13257    0.69178   1.00
H2       0.88831    1.11702    0.64620   1.00
H2       0.84157    1.09803    0.66102   1.00
H2       0.86743    1.13337    0.80822   1.00
H2       0.88298    1.11169    0.85380   1.00
H2       0.90197    1.15843    0.83898   1.00
C4       0.49945    0.50055    1.27067   1.00
C4       0.50055    0.49945    1.22933   1.00
C3       0.52172    0.52801    1.29244   1.00
C3       0.52801    0.52172    1.20756   1.00
C4       0.47586    0.47352    1.29150   1.00
C4       0.47352    0.47586    1.20850   1.00
C2       0.50046    0.50043    1.35352   1.00
C2       0.50043    0.50046    1.14648   1.00
C3       0.52236    0.52755    1.33310   1.00
C3       0.52755    0.52236    1.16690   1.00
C3       0.47703    0.47405    1.33306   1.00
C3       0.47405    0.47703    1.16694   1.00
H1       0.53833    0.55096    1.27888   1.00
H1       0.55096    0.53833    1.22112   1.00
C5       0.45135    0.44713    1.27065   1.00
C5       0.44713    0.45135    1.22935   1.00
H1       0.53986    0.54862    1.34886   1.00
H1       0.54862    0.53986    1.15114   1.00
H1       0.45952    0.45462    1.35053   1.00
H1       0.45462    0.45952    1.14947   1.00
C6       0.43112    0.41378    1.29234   1.00
C6       0.41378    0.43112    1.20766   1.00
H2       0.42931    0.38744    1.27358   1.00
H2       0.44855    0.40329    1.31737   1.00
C6       0.39071    0.42629    1.30724   1.00
H2       0.38744    0.42931    1.22642   1.00
H2       0.40329    0.44855    1.18263   1.00
C6       0.42629    0.39071    1.19276   1.00
H2       0.37188    0.43622    1.28274   1.00
C6       0.37069    0.39255    1.32832   1.00
H2       0.39373    0.45144    1.32760   1.00
C6       0.39255    0.37069    1.17168   1.00
H2       0.45144    0.39373    1.17240   1.00
H2       0.43622    0.37188    1.21726   1.00
H2       0.36663    0.36743    1.30822   1.00
H2       0.38831    0.38298    1.35380   1.00
H2       0.34157    0.40197    1.33898   1.00
H2       0.36743    0.36663    1.19178   1.00
H2       0.38298    0.38831    1.14620   1.00
H2       0.40197    0.34157    1.16102   1.00
C4       0.50055    0.77067    0.99945   1.00
C4       0.49945    0.72933    1.00055   1.00
C3       0.52801    0.79244    1.02172   1.00
C3       0.52172    0.70756    1.02801   1.00
C4       0.47352    0.79150    0.97586   1.00
C4       0.47586    0.70850    0.97352   1.00
C2       0.50043    0.85352    1.00046   1.00
C2       0.50046    0.64648    1.00043   1.00
C3       0.52755    0.83310    1.02236   1.00
C3       0.52236    0.66690    1.02755   1.00
C3       0.47405    0.83306    0.97703   1.00
C3       0.47703    0.66694    0.97405   1.00
H1       0.55096    0.77888    1.03833   1.00
H1       0.53833    0.72112    1.05096   1.00
C5       0.44713    0.77065    0.95135   1.00
C5       0.45135    0.72935    0.94713   1.00
H1       0.54862    0.84886    1.03986   1.00
H1       0.53986    0.65114    1.04862   1.00
H1       0.45462    0.85053    0.95952   1.00
H1       0.45952    0.64947    0.95462   1.00
C6       0.41378    0.79234    0.93112   1.00
C6       0.43112    0.70766    0.91378   1.00
H2       0.38744    0.77358    0.92931   1.00
H2       0.40329    0.81737    0.94855   1.00
C6       0.42629    0.80724    0.89071   1.00
H2       0.42931    0.72642    0.88744   1.00
H2       0.44855    0.68263    0.90329   1.00
C6       0.39071    0.69276    0.92629   1.00
H2       0.43622    0.78274    0.87188   1.00
C6       0.39255    0.82832    0.87069   1.00
H2       0.45144    0.82760    0.89373   1.00
C6       0.37069    0.67168    0.89255   1.00
H2       0.39373    0.67240    0.95144   1.00
H2       0.37188    0.71726    0.93622   1.00
H2       0.36743    0.80822    0.86663   1.00
H2       0.38298    0.85380    0.88831   1.00
H2       0.40197    0.83898    0.84157   1.00
H2       0.36663    0.69178    0.86743   1.00
H2       0.38831    0.64620    0.88298   1.00
H2       0.34157    0.66102    0.90197   1.00
C4       0.22933    0.49945    0.99945   1.00
C4       0.27067    0.50055    1.00055   1.00
C3       0.20756    0.52172    0.97199   1.00
C3       0.29244    0.52801    0.97828   1.00
C4       0.20850    0.47586    1.02648   1.00
C4       0.29150    0.47352    1.02414   1.00
C2       0.14648    0.50046    0.99957   1.00
C2       0.35352    0.50043    0.99954   1.00
C3       0.16690    0.52236    0.97245   1.00
C3       0.33310    0.52755    0.97764   1.00
C3       0.16694    0.47703    1.02595   1.00
C3       0.33306    0.47405    1.02297   1.00
H1       0.22112    0.53833    0.94904   1.00
H1       0.27888    0.55096    0.96167   1.00
C5       0.22935    0.45135    1.05287   1.00
C5       0.27065    0.44713    1.04865   1.00
H1       0.15114    0.53986    0.95138   1.00
H1       0.34886    0.54862    0.96014   1.00
H1       0.14947    0.45952    1.04538   1.00
H1       0.35053    0.45462    1.04048   1.00
C6       0.20766    0.43112    1.08622   1.00
C6       0.29234    0.41378    1.06888   1.00
H2       0.22642    0.42931    1.11256   1.00
H2       0.18263    0.44855    1.09671   1.00
C6       0.19276    0.39071    1.07371   1.00
H2       0.27358    0.38744    1.07069   1.00
H2       0.31737    0.40329    1.05145   1.00
C6       0.30724    0.42629    1.10929   1.00
H2       0.21726    0.37188    1.06378   1.00
C6       0.17168    0.37069    1.10745   1.00
H2       0.17240    0.39373    1.04856   1.00
C6       0.32832    0.39255    1.12931   1.00
H2       0.32760    0.45144    1.10627   1.00
H2       0.28274    0.43622    1.12812   1.00
H2       0.19178    0.36663    1.13257   1.00
H2       0.14620    0.38831    1.11702   1.00
H2       0.16102    0.34157    1.09803   1.00
H2       0.30822    0.36743    1.13337   1.00
H2       0.35380    0.38298    1.11169   1.00
H2       0.33898    0.40197    1.15843   1.00
C4       0.77067    0.49945    1.00055   1.00
C4       0.72933    0.50055    0.99945   1.00
C3       0.79244    0.52172    1.02801   1.00
C3       0.70756    0.52801    1.02172   1.00
C4       0.79150    0.47586    0.97352   1.00
C4       0.70850    0.47352    0.97586   1.00
C2       0.85352    0.50046    1.00043   1.00
C2       0.64648    0.50043    1.00046   1.00
C3       0.83310    0.52236    1.02755   1.00
C3       0.66690    0.52755    1.02236   1.00
C3       0.83306    0.47703    0.97405   1.00
C3       0.66694    0.47405    0.97703   1.00
H1       0.77888    0.53833    1.05096   1.00
H1       0.72112    0.55096    1.03833   1.00
C5       0.77065    0.45135    0.94713   1.00
C5       0.72935    0.44713    0.95135   1.00
H1       0.84886    0.53986    1.04862   1.00
H1       0.65114    0.54862    1.03986   1.00
H1       0.85053    0.45952    0.95462   1.00
H1       0.64947    0.45462    0.95952   1.00
C6       0.79234    0.43112    0.91378   1.00
C6       0.70766    0.41378    0.93112   1.00
H2       0.77358    0.42931    0.88744   1.00
H2       0.81737    0.44855    0.90329   1.00
C6       0.80724    0.39071    0.92629   1.00
H2       0.72642    0.38744    0.92931   1.00
H2       0.68263    0.40329    0.94855   1.00
C6       0.69276    0.42629    0.89071   1.00
H2       0.78274    0.37188    0.93622   1.00
C6       0.82832    0.37069    0.89255   1.00
H2       0.82760    0.39373    0.95144   1.00
C6       0.67168    0.39255    0.87069   1.00
H2       0.67240    0.45144    0.89373   1.00
H2       0.71726    0.43622    0.87188   1.00
H2       0.80822    0.36663    0.86743   1.00
H2       0.85380    0.38831    0.88298   1.00
H2       0.83898    0.34157    0.90197   1.00
H2       0.69178    0.36743    0.86663   1.00
H2       0.64620    0.38298    0.88831   1.00
H2       0.66102    0.40197    0.84157   1.00
C4       0.49945    0.22933    0.99945   1.00
C4       0.50055    0.27067    1.00055   1.00
C3       0.47199    0.20756    1.02172   1.00
C3       0.47828    0.29244    1.02801   1.00
C4       0.52648    0.20850    0.97586   1.00
C4       0.52414    0.29150    0.97352   1.00
C2       0.49957    0.14648    1.00046   1.00
C2       0.49954    0.35352    1.00043   1.00
C3       0.47245    0.16690    1.02236   1.00
C3       0.47764    0.33310    1.02755   1.00
C3       0.52595    0.16694    0.97703   1.00
C3       0.52297    0.33306    0.97405   1.00
H1       0.44904    0.22112    1.03833   1.00
H1       0.46167    0.27888    1.05096   1.00
C5       0.55287    0.22935    0.95135   1.00
C5       0.54865    0.27065    0.94713   1.00
H1       0.45138    0.15114    1.03986   1.00
H1       0.46014    0.34886    1.04862   1.00
H1       0.54538    0.14947    0.95952   1.00
H1       0.54048    0.35053    0.95462   1.00
C6       0.58622    0.20766    0.93112   1.00
C6       0.56888    0.29234    0.91378   1.00
H2       0.61256    0.22642    0.92931   1.00
H2       0.59671    0.18263    0.94855   1.00
C6       0.57371    0.19276    0.89071   1.00
H2       0.57069    0.27358    0.88744   1.00
H2       0.55145    0.31737    0.90329   1.00
C6       0.60929    0.30724    0.92629   1.00
H2       0.56378    0.21726    0.87188   1.00
C6       0.60745    0.17168    0.87069   1.00
H2       0.54856    0.17240    0.89373   1.00
C6       0.62931    0.32832    0.89255   1.00
H2       0.60627    0.32760    0.95144   1.00
H2       0.62812    0.28274    0.93622   1.00
H2       0.63257    0.19178    0.86663   1.00
H2       0.61702    0.14620    0.88831   1.00
H2       0.59803    0.16102    0.84157   1.00
H2       0.63337    0.30822    0.86743   1.00
H2       0.61169    0.35380    0.88298   1.00
H2       0.65843    0.33898    0.90197   1.00
C4       0.49945    0.49945    0.72933   1.00
C4       0.50055    0.50055    0.77067   1.00
C3       0.52172    0.47199    0.70756   1.00
C3       0.52801    0.47828    0.79244   1.00
C4       0.47586    0.52648    0.70850   1.00
C4       0.47352    0.52414    0.79150   1.00
C2       0.50046    0.49957    0.64648   1.00
C2       0.50043    0.49954    0.85352   1.00
C3       0.52236    0.47245    0.66690   1.00
C3       0.52755    0.47764    0.83310   1.00
C3       0.47703    0.52595    0.66694   1.00
C3       0.47405    0.52297    0.83306   1.00
H1       0.53833    0.44904    0.72112   1.00
H1       0.55096    0.46167    0.77888   1.00
C5       0.45135    0.55287    0.72935   1.00
C5       0.44713    0.54865    0.77065   1.00
H1       0.53986    0.45138    0.65114   1.00
H1       0.54862    0.46014    0.84886   1.00
H1       0.45952    0.54538    0.64947   1.00
H1       0.45462    0.54048    0.85053   1.00
C6       0.43112    0.58622    0.70766   1.00
C6       0.41378    0.56888    0.79234   1.00
H2       0.42931    0.61256    0.72642   1.00
H2       0.44855    0.59671    0.68263   1.00
C6       0.39071    0.57371    0.69276   1.00
H2       0.38744    0.57069    0.77358   1.00
H2       0.40329    0.55145    0.81737   1.00
C6       0.42629    0.60929    0.80724   1.00
H2       0.37188    0.56378    0.71726   1.00
C6       0.37069    0.60745    0.67168   1.00
H2       0.39373    0.54856    0.67240   1.00
C6       0.39255    0.62931    0.82832   1.00
H2       0.45144    0.60627    0.82760   1.00
H2       0.43622    0.62812    0.78274   1.00
H2       0.36663    0.63257    0.69178   1.00
H2       0.38831    0.61702    0.64620   1.00
H2       0.34157    0.59803    0.66102   1.00
H2       0.36743    0.63337    0.80822   1.00
H2       0.38298    0.61169    0.85380   1.00
H2       0.40197    0.65843    0.83898   1.00
C4       0.49945    1.00055    0.77067   1.00
C4       0.50055    0.99945    0.72933   1.00
C3       0.52172    1.02801    0.79244   1.00
C3       0.52801    1.02172    0.70756   1.00
C4       0.47586    0.97352    0.79150   1.00
C4       0.47352    0.97586    0.70850   1.00
C2       0.50046    1.00043    0.85352   1.00
C2       0.50043    1.00046    0.64648   1.00
C3       0.52236    1.02755    0.83310   1.00
C3       0.52755    1.02236    0.66690   1.00
C3       0.47703    0.97405    0.83306   1.00
C3       0.47405    0.97703    0.66694   1.00
H1       0.53833    1.05096    0.77888   1.00
H1       0.55096    1.03833    0.72112   1.00
C5       0.45135    0.94713    0.77065   1.00
C5       0.44713    0.95135    0.72935   1.00
H1       0.53986    1.04862    0.84886   1.00
H1       0.54862    1.03986    0.65114   1.00
H1       0.45952    0.95462    0.85053   1.00
H1       0.45462    0.95952    0.64947   1.00
C6       0.43112    0.91378    0.79234   1.00
C6       0.41378    0.93112    0.70766   1.00
H2       0.42931    0.88744    0.77358   1.00
H2       0.44855    0.90329    0.81737   1.00
C6       0.39071    0.92629    0.80724   1.00
H2       0.38744    0.92931    0.72642   1.00
H2       0.40329    0.94855    0.68263   1.00
C6       0.42629    0.89071    0.69276   1.00
H2       0.37188    0.93622    0.78274   1.00
C6       0.37069    0.89255    0.82832   1.00
H2       0.39373    0.95144    0.82760   1.00
C6       0.39255    0.87069    0.67168   1.00
H2       0.45144    0.89373    0.67240   1.00
H2       0.43622    0.87188    0.71726   1.00
H2       0.36663    0.86743    0.80822   1.00
H2       0.38831    0.88298    0.85380   1.00
H2       0.34157    0.90197    0.83898   1.00
H2       0.36743    0.86663    0.69178   1.00
H2       0.38298    0.88831    0.64620   1.00
H2       0.40197    0.84157    0.66102   1.00
C4       0.50055    1.27067    0.49945   1.00
C4       0.49945    1.22933    0.50055   1.00
C3       0.52801    1.29244    0.52172   1.00
C3       0.52172    1.20756    0.52801   1.00
C4       0.47352    1.29150    0.47586   1.00
C4       0.47586    1.20850    0.47352   1.00
C2       0.50043    1.35352    0.50046   1.00
C2       0.50046    1.14648    0.50043   1.00
C3       0.52755    1.33310    0.52236   1.00
C3       0.52236    1.16690    0.52755   1.00
C3       0.47405    1.33306    0.47703   1.00
C3       0.47703    1.16694    0.47405   1.00
H1       0.55096    1.27888    0.53833   1.00
H1       0.53833    1.22112    0.55096   1.00
C5       0.44713    1.27065    0.45135   1.00
C5       0.45135    1.22935    0.44713   1.00
H1       0.54862    1.34886    0.53986   1.00
H1       0.53986    1.15114    0.54862   1.00
H1       0.45462    1.35053    0.45952   1.00
H1       0.45952    1.14947    0.45462   1.00
C6       0.41378    1.29234    0.43112   1.00
C6       0.43112    1.20766    0.41378   1.00
H2       0.38744    1.27358    0.42931   1.00
H2       0.40329    1.31737    0.44855   1.00
C6       0.42629    1.30724    0.39071   1.00
H2       0.42931    1.22642    0.38744   1.00
H2       0.44855    1.18263    0.40329   1.00
C6       0.39071    1.19276    0.42629   1.00
H2       0.43622    1.28274    0.37188   1.00
C6       0.39255    1.32832    0.37069   1.00
H2       0.45144    1.32760    0.39373   1.00
C6       0.37069    1.17168    0.39255   1.00
H2       0.39373    1.17240    0.45144   1.00
H2       0.37188    1.21726    0.43622   1.00
H2       0.36743    1.30822    0.36663   1.00
H2       0.38298    1.35380    0.38831   1.00
H2       0.40197    1.33898    0.34157   1.00
H2       0.36663    1.19178    0.36743   1.00
H2       0.38831    1.14620    0.38298   1.00
H2       0.34157    1.16102    0.40197   1.00
C4       0.22933    0.99945    0.49945   1.00
C4       0.27067    1.00055    0.50055   1.00
C3       0.20756    1.02172    0.47199   1.00
C3       0.29244    1.02801    0.47828   1.00
C4       0.20850    0.97586    0.52648   1.00
C4       0.29150    0.97352    0.52414   1.00
C2       0.14648    1.00046    0.49957   1.00
C2       0.35352    1.00043    0.49954   1.00
C3       0.16690    1.02236    0.47245   1.00
C3       0.33310    1.02755    0.47764   1.00
C3       0.16694    0.97703    0.52595   1.00
C3       0.33306    0.97405    0.52297   1.00
H1       0.22112    1.03833    0.44904   1.00
H1       0.27888    1.05096    0.46167   1.00
C5       0.22935    0.95135    0.55287   1.00
C5       0.27065    0.94713    0.54865   1.00
H1       0.15114    1.03986    0.45138   1.00
H1       0.34886    1.04862    0.46014   1.00
H1       0.14947    0.95952    0.54538   1.00
H1       0.35053    0.95462    0.54048   1.00
C6       0.20766    0.93112    0.58622   1.00
C6       0.29234    0.91378    0.56888   1.00
H2       0.22642    0.92931    0.61256   1.00
H2       0.18263    0.94855    0.59671   1.00
C6       0.19276    0.89071    0.57371   1.00
H2       0.27358    0.88744    0.57069   1.00
H2       0.31737    0.90329    0.55145   1.00
C6       0.30724    0.92629    0.60929   1.00
H2       0.21726    0.87188    0.56378   1.00
C6       0.17168    0.87069    0.60745   1.00
H2       0.17240    0.89373    0.54856   1.00
C6       0.32832    0.89255    0.62931   1.00
H2       0.32760    0.95144    0.60627   1.00
H2       0.28274    0.93622    0.62812   1.00
H2       0.19178    0.86663    0.63257   1.00
H2       0.14620    0.88831    0.61702   1.00
H2       0.16102    0.84157    0.59803   1.00
H2       0.30822    0.86743    0.63337   1.00
H2       0.35380    0.88298    0.61169   1.00
H2       0.33898    0.90197    0.65843   1.00
C4       0.77067    0.99945    0.50055   1.00
C4       0.72933    1.00055    0.49945   1.00
C3       0.79244    1.02172    0.52801   1.00
C3       0.70756    1.02801    0.52172   1.00
C4       0.79150    0.97586    0.47352   1.00
C4       0.70850    0.97352    0.47586   1.00
C2       0.85352    1.00046    0.50043   1.00
C2       0.64648    1.00043    0.50046   1.00
C3       0.83310    1.02236    0.52755   1.00
C3       0.66690    1.02755    0.52236   1.00
C3       0.83306    0.97703    0.47405   1.00
C3       0.66694    0.97405    0.47703   1.00
H1       0.77888    1.03833    0.55096   1.00
H1       0.72112    1.05096    0.53833   1.00
C5       0.77065    0.95135    0.44713   1.00
C5       0.72935    0.94713    0.45135   1.00
H1       0.84886    1.03986    0.54862   1.00
H1       0.65114    1.04862    0.53986   1.00
H1       0.85053    0.95952    0.45462   1.00
H1       0.64947    0.95462    0.45952   1.00
C6       0.79234    0.93112    0.41378   1.00
C6       0.70766    0.91378    0.43112   1.00
H2       0.77358    0.92931    0.38744   1.00
H2       0.81737    0.94855    0.40329   1.00
C6       0.80724    0.89071    0.42629   1.00
H2       0.72642    0.88744    0.42931   1.00
H2       0.68263    0.90329    0.44855   1.00
C6       0.69276    0.92629    0.39071   1.00
H2       0.78274    0.87188    0.43622   1.00
C6       0.82832    0.87069    0.39255   1.00
H2       0.82760    0.89373    0.45144   1.00
C6       0.67168    0.89255    0.37069   1.00
H2       0.67240    0.95144    0.39373   1.00
H2       0.71726    0.93622    0.37188   1.00
H2       0.80822    0.86663    0.36743   1.00
H2       0.85380    0.88831    0.38298   1.00
H2       0.83898    0.84157    0.40197   1.00
H2       0.69178    0.86743    0.36663   1.00
H2       0.64620    0.88298    0.38831   1.00
H2       0.66102    0.90197    0.34157   1.00
C4       0.49945    0.72933    0.49945   1.00
C4       0.50055    0.77067    0.50055   1.00
C3       0.47199    0.70756    0.52172   1.00
C3       0.47828    0.79244    0.52801   1.00
C4       0.52648    0.70850    0.47586   1.00
C4       0.52414    0.79150    0.47352   1.00
C2       0.49957    0.64648    0.50046   1.00
C2       0.49954    0.85352    0.50043   1.00
C3       0.47245    0.66690    0.52236   1.00
C3       0.47764    0.83310    0.52755   1.00
C3       0.52595    0.66694    0.47703   1.00
C3       0.52297    0.83306    0.47405   1.00
H1       0.44904    0.72112    0.53833   1.00
H1       0.46167    0.77888    0.55096   1.00
C5       0.55287    0.72935    0.45135   1.00
C5       0.54865    0.77065    0.44713   1.00
H1       0.45138    0.65114    0.53986   1.00
H1       0.46014    0.84886    0.54862   1.00
H1       0.54538    0.64947    0.45952   1.00
H1       0.54048    0.85053    0.45462   1.00
C6       0.58622    0.70766    0.43112   1.00
C6       0.56888    0.79234    0.41378   1.00
H2       0.61256    0.72642    0.42931   1.00
H2       0.59671    0.68263    0.44855   1.00
C6       0.57371    0.69276    0.39071   1.00
H2       0.57069    0.77358    0.38744   1.00
H2       0.55145    0.81737    0.40329   1.00
C6       0.60929    0.80724    0.42629   1.00
H2       0.56378    0.71726    0.37188   1.00
C6       0.60745    0.67168    0.37069   1.00
H2       0.54856    0.67240    0.39373   1.00
C6       0.62931    0.82832    0.39255   1.00
H2       0.60627    0.82760    0.45144   1.00
H2       0.62812    0.78274    0.43622   1.00
H2       0.63257    0.69178    0.36663   1.00
H2       0.61702    0.64620    0.38831   1.00
H2       0.59803    0.66102    0.34157   1.00
H2       0.63337    0.80822    0.36743   1.00
H2       0.61169    0.85380    0.38298   1.00
H2       0.65843    0.83898    0.40197   1.00
C4       0.49945    0.99945    0.22933   1.00
C4       0.50055    1.00055    0.27067   1.00
C3       0.52172    0.97199    0.20756   1.00
C3       0.52801    0.97828    0.29244   1.00
C4       0.47586    1.02648    0.20850   1.00
C4       0.47352    1.02414    0.29150   1.00
C2       0.50046    0.99957    0.14648   1.00
C2       0.50043    0.99954    0.35352   1.00
C3       0.52236    0.97245    0.16690   1.00
C3       0.52755    0.97764    0.33310   1.00
C3       0.47703    1.02595    0.16694   1.00
C3       0.47405    1.02297    0.33306   1.00
H1       0.53833    0.94904    0.22112   1.00
H1       0.55096    0.96167    0.27888   1.00
C5       0.45135    1.05287    0.22935   1.00
C5       0.44713    1.04865    0.27065   1.00
H1       0.53986    0.95138    0.15114   1.00
H1       0.54862    0.96014    0.34886   1.00
H1       0.45952    1.04538    0.14947   1.00
H1       0.45462    1.04048    0.35053   1.00
C6       0.43112    1.08622    0.20766   1.00
C6       0.41378    1.06888    0.29234   1.00
H2       0.42931    1.11256    0.22642   1.00
H2       0.44855    1.09671    0.18263   1.00
C6       0.39071    1.07371    0.19276   1.00
H2       0.38744    1.07069    0.27358   1.00
H2       0.40329    1.05145    0.31737   1.00
C6       0.42629    1.10929    0.30724   1.00
H2       0.37188    1.06378    0.21726   1.00
C6       0.37069    1.10745    0.17168   1.00
H2       0.39373    1.04856    0.17240   1.00
C6       0.39255    1.12931    0.32832   1.00
H2       0.45144    1.10627    0.32760   1.00
H2       0.43622    1.12812    0.28274   1.00
H2       0.36663    1.13257    0.19178   1.00
H2       0.38831    1.11702    0.14620   1.00
H2       0.34157    1.09803    0.16102   1.00
H2       0.36743    1.13337    0.30822   1.00
H2       0.38298    1.11169    0.35380   1.00
H2       0.40197    1.15843    0.33898   1.00
C4       0.99945    0.50055    0.77067   1.00
C4       1.00055    0.49945    0.72933   1.00
C3       1.02172    0.52801    0.79244   1.00
C3       1.02801    0.52172    0.70756   1.00
C4       0.97586    0.47352    0.79150   1.00
C4       0.97352    0.47586    0.70850   1.00
C2       1.00046    0.50043    0.85352   1.00
C2       1.00043    0.50046    0.64648   1.00
C3       1.02236    0.52755    0.83310   1.00
C3       1.02755    0.52236    0.66690   1.00
C3       0.97703    0.47405    0.83306   1.00
C3       0.97405    0.47703    0.66694   1.00
H1       1.03833    0.55096    0.77888   1.00
H1       1.05096    0.53833    0.72112   1.00
C5       0.95135    0.44713    0.77065   1.00
C5       0.94713    0.45135    0.72935   1.00
H1       1.03986    0.54862    0.84886   1.00
H1       1.04862    0.53986    0.65114   1.00
H1       0.95952    0.45462    0.85053   1.00
H1       0.95462    0.45952    0.64947   1.00
C6       0.93112    0.41378    0.79234   1.00
C6       0.91378    0.43112    0.70766   1.00
H2       0.92931    0.38744    0.77358   1.00
H2       0.94855    0.40329    0.81737   1.00
C6       0.89071    0.42629    0.80724   1.00
H2       0.88744    0.42931    0.72642   1.00
H2       0.90329    0.44855    0.68263   1.00
C6       0.92629    0.39071    0.69276   1.00
H2       0.87188    0.43622    0.78274   1.00
C6       0.87069    0.39255    0.82832   1.00
H2       0.89373    0.45144    0.82760   1.00
C6       0.89255    0.37069    0.67168   1.00
H2       0.95144    0.39373    0.67240   1.00
H2       0.93622    0.37188    0.71726   1.00
H2       0.86663    0.36743    0.80822   1.00
H2       0.88831    0.38298    0.85380   1.00
H2       0.84157    0.40197    0.83898   1.00
H2       0.86743    0.36663    0.69178   1.00
H2       0.88298    0.38831    0.64620   1.00
H2       0.90197    0.34157    0.66102   1.00
C4       1.00055    0.77067    0.49945   1.00
C4       0.99945    0.72933    0.50055   1.00
C3       1.02801    0.79244    0.52172   1.00
C3       1.02172    0.70756    0.52801   1.00
C4       0.97352    0.79150    0.47586   1.00
C4       0.97586    0.70850    0.47352   1.00
C2       1.00043    0.85352    0.50046   1.00
C2       1.00046    0.64648    0.50043   1.00
C3       1.02755    0.83310    0.52236   1.00
C3       1.02236    0.66690    0.52755   1.00
C3       0.97405    0.83306    0.47703   1.00
C3       0.97703    0.66694    0.47405   1.00
H1       1.05096    0.77888    0.53833   1.00
H1       1.03833    0.72112    0.55096   1.00
C5       0.94713    0.77065    0.45135   1.00
C5       0.95135    0.72935    0.44713   1.00
H1       1.04862    0.84886    0.53986   1.00
H1       1.03986    0.65114    0.54862   1.00
H1       0.95462    0.85053    0.45952   1.00
H1       0.95952    0.64947    0.45462   1.00
C6       0.91378    0.79234    0.43112   1.00
C6       0.93112    0.70766    0.41378   1.00
H2       0.88744    0.77358    0.42931   1.00
H2       0.90329    0.81737    0.44855   1.00
C6       0.92629    0.80724    0.39071   1.00
H2       0.92931    0.72642    0.38744   1.00
H2       0.94855    0.68263    0.40329   1.00
C6       0.89071    0.69276    0.42629   1.00
H2       0.93622    0.78274    0.37188   1.00
C6       0.89255    0.82832    0.37069   1.00
H2       0.95144    0.82760    0.39373   1.00
C6       0.87069    0.67168    0.39255   1.00
H2       0.89373    0.67240    0.45144   1.00
H2       0.87188    0.71726    0.43622   1.00
H2       0.86743    0.80822    0.36663   1.00
H2       0.88298    0.85380    0.38831   1.00
H2       0.90197    0.83898    0.34157   1.00
H2       0.86663    0.69178    0.36743   1.00
H2       0.88831    0.64620    0.38298   1.00
H2       0.84157    0.66102    0.40197   1.00
C4       0.72933    0.49945    0.49945   1.00
C4       0.77067    0.50055    0.50055   1.00
C3       0.70756    0.52172    0.47199   1.00
C3       0.79244    0.52801    0.47828   1.00
C4       0.70850    0.47586    0.52648   1.00
C4       0.79150    0.47352    0.52414   1.00
C2       0.64648    0.50046    0.49957   1.00
C2       0.85352    0.50043    0.49954   1.00
C3       0.66690    0.52236    0.47245   1.00
C3       0.83310    0.52755    0.47764   1.00
C3       0.66694    0.47703    0.52595   1.00
C3       0.83306    0.47405    0.52297   1.00
H1       0.72112    0.53833    0.44904   1.00
H1       0.77888    0.55096    0.46167   1.00
C5       0.72935    0.45135    0.55287   1.00
C5       0.77065    0.44713    0.54865   1.00
H1       0.65114    0.53986    0.45138   1.00
H1       0.84886    0.54862    0.46014   1.00
H1       0.64947    0.45952    0.54538   1.00
H1       0.85053    0.45462    0.54048   1.00
C6       0.70766    0.43112    0.58622   1.00
C6       0.79234    0.41378    0.56888   1.00
H2       0.72642    0.42931    0.61256   1.00
H2       0.68263    0.44855    0.59671   1.00
C6       0.69276    0.39071    0.57371   1.00
H2       0.77358    0.38744    0.57069   1.00
H2       0.81737    0.40329    0.55145   1.00
C6       0.80724    0.42629    0.60929   1.00
H2       0.71726    0.37188    0.56378   1.00
C6       0.67168    0.37069    0.60745   1.00
H2       0.67240    0.39373    0.54856   1.00
C6       0.82832    0.39255    0.62931   1.00
H2       0.82760    0.45144    0.60627   1.00
H2       0.78274    0.43622    0.62812   1.00
H2       0.69178    0.36663    0.63257   1.00
H2       0.64620    0.38831    0.61702   1.00
H2       0.66102    0.34157    0.59803   1.00
H2       0.80822    0.36743    0.63337   1.00
H2       0.85380    0.38298    0.61169   1.00
H2       0.83898    0.40197    0.65843   1.00
C4       1.27067    0.49945    0.50055   1.00
C4       1.22933    0.50055    0.49945   1.00
C3       1.29244    0.52172    0.52801   1.00
C3       1.20756    0.52801    0.52172   1.00
C4       1.29150    0.47586    0.47352   1.00
C4       1.20850    0.47352    0.47586   1.00
C2       1.35352    0.50046    0.50043   1.00
C2       1.14648    0.50043    0.50046   1.00
C3       1.33310    0.52236    0.52755   1.00
C3       1.16690    0.52755    0.52236   1.00
C3       1.33306    0.47703    0.47405   1.00
C3       1.16694    0.47405    0.47703   1.00
H1       1.27888    0.53833    0.55096   1.00
H1       1.22112    0.55096    0.53833   1.00
C5       1.27065    0.45135    0.44713   1.00
C5       1.22935    0.44713    0.45135   1.00
H1       1.34886    0.53986    0.54862   1.00
H1       1.15114    0.54862    0.53986   1.00
H1       1.35053    0.45952    0.45462   1.00
H1       1.14947    0.45462    0.45952   1.00
C6       1.29234    0.43112    0.41378   1.00
C6       1.20766    0.41378    0.43112   1.00
H2       1.27358    0.42931    0.38744   1.00
H2       1.31737    0.44855    0.40329   1.00
C6       1.30724    0.39071    0.42629   1.00
H2       1.22642    0.38744    0.42931   1.00
H2       1.18263    0.40329    0.44855   1.00
C6       1.19276    0.42629    0.39071   1.00
H2       1.28274    0.37188    0.43622   1.00
C6       1.32832    0.37069    0.39255   1.00
H2       1.32760    0.39373    0.45144   1.00
C6       1.17168    0.39255    0.37069   1.00
H2       1.17240    0.45144    0.39373   1.00
H2       1.21726    0.43622    0.37188   1.00
H2       1.30822    0.36663    0.36743   1.00
H2       1.35380    0.38831    0.38298   1.00
H2       1.33898    0.34157    0.40197   1.00
H2       1.19178    0.36743    0.36663   1.00
H2       1.14620    0.38298    0.38831   1.00
H2       1.16102    0.40197    0.34157   1.00
C4       0.99945    0.22933    0.49945   1.00
C4       1.00055    0.27067    0.50055   1.00
C3       0.97199    0.20756    0.52172   1.00
C3       0.97828    0.29244    0.52801   1.00
C4       1.02648    0.20850    0.47586   1.00
C4       1.02414    0.29150    0.47352   1.00
C2       0.99957    0.14648    0.50046   1.00
C2       0.99954    0.35352    0.50043   1.00
C3       0.97245    0.16690    0.52236   1.00
C3       0.97764    0.33310    0.52755   1.00
C3       1.02595    0.16694    0.47703   1.00
C3       1.02297    0.33306    0.47405   1.00
H1       0.94904    0.22112    0.53833   1.00
H1       0.96167    0.27888    0.55096   1.00
C5       1.05287    0.22935    0.45135   1.00
C5       1.04865    0.27065    0.44713   1.00
H1       0.95138    0.15114    0.53986   1.00
H1       0.96014    0.34886    0.54862   1.00
H1       1.04538    0.14947    0.45952   1.00
H1       1.04048    0.35053    0.45462   1.00
C6       1.08622    0.20766    0.43112   1.00
C6       1.06888    0.29234    0.41378   1.00
H2       1.11256    0.22642    0.42931   1.00
H2       1.09671    0.18263    0.44855   1.00
C6       1.07371    0.19276    0.39071   1.00
H2       1.07069    0.27358    0.38744   1.00
H2       1.05145    0.31737    0.40329   1.00
C6       1.10929    0.30724    0.42629   1.00
H2       1.06378    0.21726    0.37188   1.00
C6       1.10745    0.17168    0.37069   1.00
H2       1.04856    0.17240    0.39373   1.00
C6       1.12931    0.32832    0.39255   1.00
H2       1.10627    0.32760    0.45144   1.00
H2       1.12812    0.28274    0.43622   1.00
H2       1.13257    0.19178    0.36663   1.00
H2       1.11702    0.14620    0.38831   1.00
H2       1.09803    0.16102    0.34157   1.00
H2       1.13337    0.30822    0.36743   1.00
H2       1.11169    0.35380    0.38298   1.00
H2       1.15843    0.33898    0.40197   1.00
C4       0.99945    0.49945    0.22933   1.00
C4       1.00055    0.50055    0.27067   1.00
C3       1.02172    0.47199    0.20756   1.00
C3       1.02801    0.47828    0.29244   1.00
C4       0.97586    0.52648    0.20850   1.00
C4       0.97352    0.52414    0.29150   1.00
C2       1.00046    0.49957    0.14648   1.00
C2       1.00043    0.49954    0.35352   1.00
C3       1.02236    0.47245    0.16690   1.00
C3       1.02755    0.47764    0.33310   1.00
C3       0.97703    0.52595    0.16694   1.00
C3       0.97405    0.52297    0.33306   1.00
H1       1.03833    0.44904    0.22112   1.00
H1       1.05096    0.46167    0.27888   1.00
C5       0.95135    0.55287    0.22935   1.00
C5       0.94713    0.54865    0.27065   1.00
H1       1.03986    0.45138    0.15114   1.00
H1       1.04862    0.46014    0.34886   1.00
H1       0.95952    0.54538    0.14947   1.00
H1       0.95462    0.54048    0.35053   1.00
C6       0.93112    0.58622    0.20766   1.00
C6       0.91378    0.56888    0.29234   1.00
H2       0.92931    0.61256    0.22642   1.00
H2       0.94855    0.59671    0.18263   1.00
C6       0.89071    0.57371    0.19276   1.00
H2       0.88744    0.57069    0.27358   1.00
H2       0.90329    0.55145    0.31737   1.00
C6       0.92629    0.60929    0.30724   1.00
H2       0.87188    0.56378    0.21726   1.00
C6       0.87069    0.60745    0.17168   1.00
H2       0.89373    0.54856    0.17240   1.00
C6       0.89255    0.62931    0.32832   1.00
H2       0.95144    0.60627    0.32760   1.00
H2       0.93622    0.62812    0.28274   1.00
H2       0.86663    0.63257    0.19178   1.00
H2       0.88831    0.61702    0.14620   1.00
H2       0.84157    0.59803    0.16102   1.00
H2       0.86743    0.63337    0.30822   1.00
H2       0.88298    0.61169    0.35380   1.00
H2       0.90197    0.65843    0.33898   1.00
