data_IRMOF10_SG202_interpen_Ligand4lp_label_q.

_audit_creation_method             'generated by an auxiliary program of Tobunporous'

_symmetry_space_group_name_H-M     'P 1'
_symmetry_Int_Tables_number        1
_symmetry_cell_setting             triclinic

_cell_length_a                    34.2800
_cell_length_b                    34.2800
_cell_length_c                    34.2800
_cell_angle_alpha                 90.0000
_cell_angle_beta                  90.0000
_cell_angle_gamma                 90.0000

loop_
_atom_site_label
_atom_site_fract_x
_atom_site_fract_y
_atom_site_fract_z
_atom_site_occupancy
O1       0.75000    0.75000    0.75000   1.00
Zn1      0.71720    0.78280    0.78280   1.00
Zn1      0.78280    0.71720    0.78280   1.00
Zn1      0.78280    0.78280    0.71720   1.00
Zn1      0.71720    0.71720    0.71720   1.00
O2       0.72650    0.77350    0.83820   1.00
O2       0.72650    0.83820    0.77350   1.00
O2       0.66180    0.77350    0.77350   1.00
O2       0.77350    0.72650    0.83820   1.00
O2       0.83820    0.72650    0.77350   1.00
O2       0.77350    0.66180    0.77350   1.00
O2       0.77350    0.83820    0.72650   1.00
O2       0.83820    0.77350    0.72650   1.00
O2       0.77350    0.77350    0.66180   1.00
O2       0.66180    0.72650    0.72650   1.00
O2       0.72650    0.66180    0.72650   1.00
O2       0.72650    0.72650    0.66180   1.00
C1       0.75000    0.75000    0.85520   1.00
C1       0.75000    0.85520    0.75000   1.00
C1       0.64480    0.75000    0.75000   1.00
C1       0.85520    0.75000    0.75000   1.00
C1       0.75000    0.64480    0.75000   1.00
C1       0.75000    0.75000    0.64480   1.00
O1       0.25000    0.25000    0.75000   1.00
Zn1      0.21720    0.28280    0.78280   1.00
Zn1      0.28280    0.21720    0.78280   1.00
Zn1      0.28280    0.28280    0.71720   1.00
Zn1      0.21720    0.21720    0.71720   1.00
O2       0.22650    0.27350    0.83820   1.00
O2       0.22650    0.33820    0.77350   1.00
O2       0.16180    0.27350    0.77350   1.00
O2       0.27350    0.22650    0.83820   1.00
O2       0.33820    0.22650    0.77350   1.00
O2       0.27350    0.16180    0.77350   1.00
O2       0.27350    0.33820    0.72650   1.00
O2       0.33820    0.27350    0.72650   1.00
O2       0.27350    0.27350    0.66180   1.00
O2       0.16180    0.22650    0.72650   1.00
O2       0.22650    0.16180    0.72650   1.00
O2       0.22650    0.22650    0.66180   1.00
C1       0.25000    0.25000    0.85520   1.00
C1       0.25000    0.35520    0.75000   1.00
C1       0.14480    0.25000    0.75000   1.00
C1       0.35520    0.25000    0.75000   1.00
C1       0.25000    0.14480    0.75000   1.00
C1       0.25000    0.25000    0.64480   1.00
O1       0.25000    0.75000    0.25000   1.00
Zn1      0.21720    0.78280    0.28280   1.00
Zn1      0.28280    0.71720    0.28280   1.00
Zn1      0.28280    0.78280    0.21720   1.00
Zn1      0.21720    0.71720    0.21720   1.00
O2       0.22650    0.77350    0.33820   1.00
O2       0.22650    0.83820    0.27350   1.00
O2       0.16180    0.77350    0.27350   1.00
O2       0.27350    0.72650    0.33820   1.00
O2       0.33820    0.72650    0.27350   1.00
O2       0.27350    0.66180    0.27350   1.00
O2       0.27350    0.83820    0.22650   1.00
O2       0.33820    0.77350    0.22650   1.00
O2       0.27350    0.77350    0.16180   1.00
O2       0.16180    0.72650    0.22650   1.00
O2       0.22650    0.66180    0.22650   1.00
O2       0.22650    0.72650    0.16180   1.00
C1       0.25000    0.75000    0.35520   1.00
C1       0.25000    0.85520    0.25000   1.00
C1       0.14480    0.75000    0.25000   1.00
C1       0.35520    0.75000    0.25000   1.00
C1       0.25000    0.64480    0.25000   1.00
C1       0.25000    0.75000    0.14480   1.00
O1       0.75000    0.25000    0.25000   1.00
Zn1      0.71720    0.28280    0.28280   1.00
Zn1      0.78280    0.21720    0.28280   1.00
Zn1      0.78280    0.28280    0.21720   1.00
Zn1      0.71720    0.21720    0.21720   1.00
O2       0.72650    0.27350    0.33820   1.00
O2       0.72650    0.33820    0.27350   1.00
O2       0.66180    0.27350    0.27350   1.00
O2       0.77350    0.22650    0.33820   1.00
O2       0.83820    0.22650    0.27350   1.00
O2       0.77350    0.16180    0.27350   1.00
O2       0.77350    0.33820    0.22650   1.00
O2       0.83820    0.27350    0.22650   1.00
O2       0.77350    0.27350    0.16180   1.00
O2       0.66180    0.22650    0.22650   1.00
O2       0.72650    0.16180    0.22650   1.00
O2       0.72650    0.22650    0.16180   1.00
C1       0.75000    0.25000    0.35520   1.00
C1       0.75000    0.35520    0.25000   1.00
C1       0.64480    0.25000    0.25000   1.00
C1       0.85520    0.25000    0.25000   1.00
C1       0.75000    0.14480    0.25000   1.00
C1       0.75000    0.25000    0.14480   1.00
O1       0.25000    0.25000    0.25000   1.00
Zn1      0.28280    0.21720    0.21720   1.00
Zn1      0.21720    0.28280    0.21720   1.00
Zn1      0.21720    0.21720    0.28280   1.00
Zn1      0.28280    0.28280    0.28280   1.00
O2       0.27350    0.22650    0.16180   1.00
O2       0.27350    0.16180    0.22650   1.00
O2       0.33820    0.22650    0.22650   1.00
O2       0.22650    0.27350    0.16180   1.00
O2       0.16180    0.27350    0.22650   1.00
O2       0.22650    0.33820    0.22650   1.00
O2       0.22650    0.16180    0.27350   1.00
O2       0.16180    0.22650    0.27350   1.00
O2       0.22650    0.22650    0.33820   1.00
O2       0.33820    0.27350    0.27350   1.00
O2       0.27350    0.33820    0.27350   1.00
O2       0.27350    0.27350    0.33820   1.00
C1       0.25000    0.25000    0.14480   1.00
C1       0.25000    0.14480    0.25000   1.00
C1       0.35520    0.25000    0.25000   1.00
C1       0.14480    0.25000    0.25000   1.00
C1       0.25000    0.35520    0.25000   1.00
C1       0.25000    0.25000    0.35520   1.00
O1       0.75000    0.75000    0.25000   1.00
Zn1      0.78280    0.71720    0.21720   1.00
Zn1      0.71720    0.78280    0.21720   1.00
Zn1      0.71720    0.71720    0.28280   1.00
Zn1      0.78280    0.78280    0.28280   1.00
O2       0.77350    0.72650    0.16180   1.00
O2       0.77350    0.66180    0.22650   1.00
O2       0.83820    0.72650    0.22650   1.00
O2       0.72650    0.77350    0.16180   1.00
O2       0.66180    0.77350    0.22650   1.00
O2       0.72650    0.83820    0.22650   1.00
O2       0.72650    0.66180    0.27350   1.00
O2       0.66180    0.72650    0.27350   1.00
O2       0.72650    0.72650    0.33820   1.00
O2       0.83820    0.77350    0.27350   1.00
O2       0.77350    0.83820    0.27350   1.00
O2       0.77350    0.77350    0.33820   1.00
C1       0.75000    0.75000    0.14480   1.00
C1       0.75000    0.64480    0.25000   1.00
C1       0.85520    0.75000    0.25000   1.00
C1       0.64480    0.75000    0.25000   1.00
C1       0.75000    0.85520    0.25000   1.00
C1       0.75000    0.75000    0.35520   1.00
O1       0.75000    0.25000    0.75000   1.00
Zn1      0.78280    0.21720    0.71720   1.00
Zn1      0.71720    0.28280    0.71720   1.00
Zn1      0.71720    0.21720    0.78280   1.00
Zn1      0.78280    0.28280    0.78280   1.00
O2       0.77350    0.22650    0.66180   1.00
O2       0.77350    0.16180    0.72650   1.00
O2       0.83820    0.22650    0.72650   1.00
O2       0.72650    0.27350    0.66180   1.00
O2       0.66180    0.27350    0.72650   1.00
O2       0.72650    0.33820    0.72650   1.00
O2       0.72650    0.16180    0.77350   1.00
O2       0.66180    0.22650    0.77350   1.00
O2       0.72650    0.22650    0.83820   1.00
O2       0.83820    0.27350    0.77350   1.00
O2       0.77350    0.33820    0.77350   1.00
O2       0.77350    0.27350    0.83820   1.00
C1       0.75000    0.25000    0.64480   1.00
C1       0.75000    0.14480    0.75000   1.00
C1       0.85520    0.25000    0.75000   1.00
C1       0.64480    0.25000    0.75000   1.00
C1       0.75000    0.35520    0.75000   1.00
C1       0.75000    0.25000    0.85520   1.00
O1       0.25000    0.75000    0.75000   1.00
Zn1      0.28280    0.71720    0.71720   1.00
Zn1      0.21720    0.78280    0.71720   1.00
Zn1      0.21720    0.71720    0.78280   1.00
Zn1      0.28280    0.78280    0.78280   1.00
O2       0.27350    0.72650    0.66180   1.00
O2       0.27350    0.66180    0.72650   1.00
O2       0.33820    0.72650    0.72650   1.00
O2       0.22650    0.77350    0.66180   1.00
O2       0.16180    0.77350    0.72650   1.00
O2       0.22650    0.83820    0.72650   1.00
O2       0.22650    0.66180    0.77350   1.00
O2       0.16180    0.72650    0.77350   1.00
O2       0.22650    0.72650    0.83820   1.00
O2       0.33820    0.77350    0.77350   1.00
O2       0.27350    0.83820    0.77350   1.00
O2       0.27350    0.77350    0.83820   1.00
C1       0.25000    0.75000    0.64480   1.00
C1       0.25000    0.64480    0.75000   1.00
C1       0.35520    0.75000    0.75000   1.00
C1       0.14480    0.75000    0.75000   1.00
C1       0.25000    0.85520    0.75000   1.00
C1       0.25000    0.75000    0.85520   1.00
O1       1.00000    1.00000    1.00000   1.00
Zn1      0.96720    1.03280    1.03280   1.00
Zn1      1.03280    0.96720    1.03280   1.00
Zn1      1.03280    1.03280    0.96720   1.00
Zn1      0.96720    0.96720    0.96720   1.00
O2       0.97650    1.02350    1.08820   1.00
O2       0.97650    1.08820    1.02350   1.00
O2       0.91180    1.02350    1.02350   1.00
O2       1.02350    0.97650    1.08820   1.00
O2       1.08820    0.97650    1.02350   1.00
O2       1.02350    0.91180    1.02350   1.00
O2       1.02350    1.08820    0.97650   1.00
O2       1.08820    1.02350    0.97650   1.00
O2       1.02350    1.02350    0.91180   1.00
O2       0.91180    0.97650    0.97650   1.00
O2       0.97650    0.91180    0.97650   1.00
O2       0.97650    0.97650    0.91180   1.00
C1       1.00000    1.00000    1.10520   1.00
C1       1.00000    1.10520    1.00000   1.00
C1       0.89480    1.00000    1.00000   1.00
C1       1.10520    1.00000    1.00000   1.00
C1       1.00000    0.89480    1.00000   1.00
C1       1.00000    1.00000    0.89480   1.00
O1       0.50000    0.50000    1.00000   1.00
Zn1      0.46720    0.53280    1.03280   1.00
Zn1      0.53280    0.46720    1.03280   1.00
Zn1      0.53280    0.53280    0.96720   1.00
Zn1      0.46720    0.46720    0.96720   1.00
O2       0.47650    0.52350    1.08820   1.00
O2       0.47650    0.58820    1.02350   1.00
O2       0.41180    0.52350    1.02350   1.00
O2       0.52350    0.47650    1.08820   1.00
O2       0.58820    0.47650    1.02350   1.00
O2       0.52350    0.41180    1.02350   1.00
O2       0.52350    0.58820    0.97650   1.00
O2       0.58820    0.52350    0.97650   1.00
O2       0.52350    0.52350    0.91180   1.00
O2       0.41180    0.47650    0.97650   1.00
O2       0.47650    0.41180    0.97650   1.00
O2       0.47650    0.47650    0.91180   1.00
C1       0.50000    0.50000    1.10520   1.00
C1       0.50000    0.60520    1.00000   1.00
C1       0.39480    0.50000    1.00000   1.00
C1       0.60520    0.50000    1.00000   1.00
C1       0.50000    0.39480    1.00000   1.00
C1       0.50000    0.50000    0.89480   1.00
O1       0.50000    1.00000    0.50000   1.00
Zn1      0.46720    1.03280    0.53280   1.00
Zn1      0.53280    0.96720    0.53280   1.00
Zn1      0.53280    1.03280    0.46720   1.00
Zn1      0.46720    0.96720    0.46720   1.00
O2       0.47650    1.02350    0.58820   1.00
O2       0.47650    1.08820    0.52350   1.00
O2       0.41180    1.02350    0.52350   1.00
O2       0.52350    0.97650    0.58820   1.00
O2       0.58820    0.97650    0.52350   1.00
O2       0.52350    0.91180    0.52350   1.00
O2       0.52350    1.08820    0.47650   1.00
O2       0.58820    1.02350    0.47650   1.00
O2       0.52350    1.02350    0.41180   1.00
O2       0.41180    0.97650    0.47650   1.00
O2       0.47650    0.91180    0.47650   1.00
O2       0.47650    0.97650    0.41180   1.00
C1       0.50000    1.00000    0.60520   1.00
C1       0.50000    1.10520    0.50000   1.00
C1       0.39480    1.00000    0.50000   1.00
C1       0.60520    1.00000    0.50000   1.00
C1       0.50000    0.89480    0.50000   1.00
C1       0.50000    1.00000    0.39480   1.00
O1       1.00000    0.50000    0.50000   1.00
Zn1      0.96720    0.53280    0.53280   1.00
Zn1      1.03280    0.46720    0.53280   1.00
Zn1      1.03280    0.53280    0.46720   1.00
Zn1      0.96720    0.46720    0.46720   1.00
O2       0.97650    0.52350    0.58820   1.00
O2       0.97650    0.58820    0.52350   1.00
O2       0.91180    0.52350    0.52350   1.00
O2       1.02350    0.47650    0.58820   1.00
O2       1.08820    0.47650    0.52350   1.00
O2       1.02350    0.41180    0.52350   1.00
O2       1.02350    0.58820    0.47650   1.00
O2       1.08820    0.52350    0.47650   1.00
O2       1.02350    0.52350    0.41180   1.00
O2       0.91180    0.47650    0.47650   1.00
O2       0.97650    0.41180    0.47650   1.00
O2       0.97650    0.47650    0.41180   1.00
C1       1.00000    0.50000    0.60520   1.00
C1       1.00000    0.60520    0.50000   1.00
C1       0.89480    0.50000    0.50000   1.00
C1       1.10520    0.50000    0.50000   1.00
C1       1.00000    0.39480    0.50000   1.00
C1       1.00000    0.50000    0.39480   1.00
O1       0.50000    0.50000    0.50000   1.00
Zn1      0.53280    0.46720    0.46720   1.00
Zn1      0.46720    0.53280    0.46720   1.00
Zn1      0.46720    0.46720    0.53280   1.00
Zn1      0.53280    0.53280    0.53280   1.00
O2       0.52350    0.47650    0.41180   1.00
O2       0.52350    0.41180    0.47650   1.00
O2       0.58820    0.47650    0.47650   1.00
O2       0.47650    0.52350    0.41180   1.00
O2       0.41180    0.52350    0.47650   1.00
O2       0.47650    0.58820    0.47650   1.00
O2       0.47650    0.41180    0.52350   1.00
O2       0.41180    0.47650    0.52350   1.00
O2       0.47650    0.47650    0.58820   1.00
O2       0.58820    0.52350    0.52350   1.00
O2       0.52350    0.58820    0.52350   1.00
O2       0.52350    0.52350    0.58820   1.00
C1       0.50000    0.50000    0.39480   1.00
C1       0.50000    0.39480    0.50000   1.00
C1       0.60520    0.50000    0.50000   1.00
C1       0.39480    0.50000    0.50000   1.00
C1       0.50000    0.60520    0.50000   1.00
C1       0.50000    0.50000    0.60520   1.00
O1       1.00000    1.00000    0.50000   1.00
Zn1      1.03280    0.96720    0.46720   1.00
Zn1      0.96720    1.03280    0.46720   1.00
Zn1      0.96720    0.96720    0.53280   1.00
Zn1      1.03280    1.03280    0.53280   1.00
O2       1.02350    0.97650    0.41180   1.00
O2       1.02350    0.91180    0.47650   1.00
O2       1.08820    0.97650    0.47650   1.00
O2       0.97650    1.02350    0.41180   1.00
O2       0.91180    1.02350    0.47650   1.00
O2       0.97650    1.08820    0.47650   1.00
O2       0.97650    0.91180    0.52350   1.00
O2       0.91180    0.97650    0.52350   1.00
O2       0.97650    0.97650    0.58820   1.00
O2       1.08820    1.02350    0.52350   1.00
O2       1.02350    1.08820    0.52350   1.00
O2       1.02350    1.02350    0.58820   1.00
C1       1.00000    1.00000    0.39480   1.00
C1       1.00000    0.89480    0.50000   1.00
C1       1.10520    1.00000    0.50000   1.00
C1       0.89480    1.00000    0.50000   1.00
C1       1.00000    1.10520    0.50000   1.00
C1       1.00000    1.00000    0.60520   1.00
O1       1.00000    0.50000    1.00000   1.00
Zn1      1.03280    0.46720    0.96720   1.00
Zn1      0.96720    0.53280    0.96720   1.00
Zn1      0.96720    0.46720    1.03280   1.00
Zn1      1.03280    0.53280    1.03280   1.00
O2       1.02350    0.47650    0.91180   1.00
O2       1.02350    0.41180    0.97650   1.00
O2       1.08820    0.47650    0.97650   1.00
O2       0.97650    0.52350    0.91180   1.00
O2       0.91180    0.52350    0.97650   1.00
O2       0.97650    0.58820    0.97650   1.00
O2       0.97650    0.41180    1.02350   1.00
O2       0.91180    0.47650    1.02350   1.00
O2       0.97650    0.47650    1.08820   1.00
O2       1.08820    0.52350    1.02350   1.00
O2       1.02350    0.58820    1.02350   1.00
O2       1.02350    0.52350    1.08820   1.00
C1       1.00000    0.50000    0.89480   1.00
C1       1.00000    0.39480    1.00000   1.00
C1       1.10520    0.50000    1.00000   1.00
C1       0.89480    0.50000    1.00000   1.00
C1       1.00000    0.60520    1.00000   1.00
C1       1.00000    0.50000    1.10520   1.00
O1       0.50000    1.00000    1.00000   1.00
Zn1      0.53280    0.96720    0.96720   1.00
Zn1      0.46720    1.03280    0.96720   1.00
Zn1      0.46720    0.96720    1.03280   1.00
Zn1      0.53280    1.03280    1.03280   1.00
O2       0.52350    0.97650    0.91180   1.00
O2       0.52350    0.91180    0.97650   1.00
O2       0.58820    0.97650    0.97650   1.00
O2       0.47650    1.02350    0.91180   1.00
O2       0.41180    1.02350    0.97650   1.00
O2       0.47650    1.08820    0.97650   1.00
O2       0.47650    0.91180    1.02350   1.00
O2       0.41180    0.97650    1.02350   1.00
O2       0.47650    0.97650    1.08820   1.00
O2       0.58820    1.02350    1.02350   1.00
O2       0.52350    1.08820    1.02350   1.00
O2       0.52350    1.02350    1.08820   1.00
C1       0.50000    1.00000    0.89480   1.00
C1       0.50000    0.89480    1.00000   1.00
C1       0.60520    1.00000    1.00000   1.00
C1       0.39480    1.00000    1.00000   1.00
C1       0.50000    1.10520    1.00000   1.00
C1       0.50000    1.00000    1.10520   1.00
C4       0.75010    0.75479    0.98025   1.00
C4       0.75137    0.75568    1.02191   1.00
C3       0.71453    0.75801    0.95897   1.00
C3       0.71782    0.76395    1.04504   1.00
C3       0.78548    0.75047    0.95854   1.00
C3       0.78733    0.74816    1.04170   1.00
C2       0.74770    0.75491    0.89595   1.00
C2       0.75346    0.75562    1.10622   1.00
C3       0.71330    0.75828    0.91811   1.00
C3       0.71871    0.76374    1.08591   1.00
C3       0.78300    0.75109    0.91696   1.00
C3       0.78695    0.74801    1.08336   1.00
H1       0.68812    0.75990    0.97237   1.00
H1       0.69156    0.77081    1.03306   1.00
C5       0.82201    0.74546    0.97835   1.00
C5       0.82243    0.74127    1.01998   1.00
H1       0.68672    0.76085    0.90451   1.00
H1       0.69347    0.76978    1.10091   1.00
H1       0.80755    0.74837    0.90052   1.00
H1       0.81188    0.74251    1.09848   1.00
C6       0.85961    0.74510    0.95515   1.00
C6       0.85929    0.72925    1.04119   1.00
H2       0.85865    0.76833    0.93345   1.00
H2       0.85200    0.70740    1.06310   1.00
H2       0.88440    0.75391    0.97286   1.00
H2       0.87894    0.71306    1.02228   1.00
C6       0.86864    0.70452    0.93606   1.00
C6       0.88192    0.76458    1.05942   1.00
H2       0.84206    0.69275    0.92292   1.00
H2       0.86130    0.78419    1.07383   1.00
C6       0.90171    0.70287    0.90459   1.00
C6       0.91535    0.75517    1.08911   1.00
H2       0.87611    0.68423    0.95949   1.00
H2       0.89432    0.78156    1.03546   1.00
C6       0.89054    0.72607    0.86735   1.00
C6       0.89924    0.73651    1.12708   1.00
C6       0.94090    0.71858    0.92074   1.00
C6       0.94646    0.72778    1.07107   1.00
C6       0.90792    0.65966    0.89245   1.00
C6       0.93581    0.79396    1.10054   1.00
H2       0.86265    0.71609    0.85558   1.00
H2       0.87672    0.75486    1.14020   1.00
H2       0.88806    0.75718    0.87330   1.00
H2       0.88653    0.70792    1.12154   1.00
H2       0.91253    0.72252    0.84459   1.00
H2       0.92235    0.73257    1.14863   1.00
H2       0.96437    0.71473    0.89955   1.00
H2       0.97099    0.72366    1.09098   1.00
H2       0.93891    0.74965    0.92725   1.00
H2       0.93420    0.69908    1.06494   1.00
H2       0.94904    0.70328    0.94745   1.00
H2       0.95770    0.73986    1.04385   1.00
H2       0.88114    0.64725    0.88042   1.00
H2       0.91515    0.81425    1.11383   1.00
H2       0.93063    0.65702    0.87025   1.00
H2       0.95928    0.78893    1.12149   1.00
H2       0.91666    0.64189    0.91739   1.00
H2       0.94851    0.80817    1.07502   1.00
C4       0.75479    0.98025    0.75010   1.00
C4       0.75568    1.02191    0.75137   1.00
C3       0.75801    0.95897    0.71453   1.00
C3       0.76395    1.04504    0.71782   1.00
C3       0.75047    0.95854    0.78548   1.00
C3       0.74816    1.04170    0.78733   1.00
C2       0.75491    0.89595    0.74770   1.00
C2       0.75562    1.10622    0.75346   1.00
C3       0.75828    0.91811    0.71330   1.00
C3       0.76374    1.08591    0.71871   1.00
C3       0.75109    0.91696    0.78300   1.00
C3       0.74801    1.08336    0.78695   1.00
H1       0.75990    0.97237    0.68812   1.00
H1       0.77081    1.03306    0.69156   1.00
C5       0.74546    0.97835    0.82201   1.00
C5       0.74127    1.01998    0.82243   1.00
H1       0.76085    0.90451    0.68672   1.00
H1       0.76978    1.10091    0.69347   1.00
H1       0.74837    0.90052    0.80755   1.00
H1       0.74251    1.09848    0.81188   1.00
C6       0.74510    0.95515    0.85961   1.00
C6       0.72925    1.04119    0.85929   1.00
H2       0.76833    0.93345    0.85865   1.00
H2       0.70740    1.06310    0.85200   1.00
H2       0.75391    0.97286    0.88440   1.00
H2       0.71306    1.02228    0.87894   1.00
C6       0.70452    0.93606    0.86864   1.00
C6       0.76458    1.05942    0.88192   1.00
H2       0.69275    0.92292    0.84206   1.00
H2       0.78419    1.07383    0.86130   1.00
C6       0.70287    0.90459    0.90171   1.00
C6       0.75517    1.08911    0.91535   1.00
H2       0.68423    0.95949    0.87611   1.00
H2       0.78156    1.03546    0.89432   1.00
C6       0.72607    0.86735    0.89054   1.00
C6       0.73651    1.12708    0.89924   1.00
C6       0.71858    0.92074    0.94090   1.00
C6       0.72778    1.07107    0.94646   1.00
C6       0.65966    0.89245    0.90792   1.00
C6       0.79396    1.10054    0.93581   1.00
H2       0.71609    0.85558    0.86265   1.00
H2       0.75486    1.14020    0.87672   1.00
H2       0.75718    0.87330    0.88806   1.00
H2       0.70792    1.12154    0.88653   1.00
H2       0.72252    0.84459    0.91253   1.00
H2       0.73257    1.14863    0.92235   1.00
H2       0.71473    0.89955    0.96437   1.00
H2       0.72366    1.09098    0.97099   1.00
H2       0.74965    0.92725    0.93891   1.00
H2       0.69908    1.06494    0.93420   1.00
H2       0.70328    0.94745    0.94904   1.00
H2       0.73986    1.04385    0.95770   1.00
H2       0.64725    0.88042    0.88114   1.00
H2       0.81425    1.11383    0.91515   1.00
H2       0.65702    0.87025    0.93063   1.00
H2       0.78893    1.12149    0.95928   1.00
H2       0.64189    0.91739    0.91666   1.00
H2       0.80817    1.07502    0.94851   1.00
C4       0.51975    0.75010    0.74521   1.00
C4       0.47809    0.75137    0.74432   1.00
C3       0.54103    0.71453    0.74199   1.00
C3       0.45496    0.71782    0.73605   1.00
C3       0.54146    0.78548    0.74953   1.00
C3       0.45830    0.78733    0.75184   1.00
C2       0.60405    0.74770    0.74509   1.00
C2       0.39378    0.75346    0.74438   1.00
C3       0.58189    0.71330    0.74172   1.00
C3       0.41409    0.71871    0.73626   1.00
C3       0.58304    0.78300    0.74891   1.00
C3       0.41664    0.78695    0.75199   1.00
H1       0.52763    0.68812    0.74010   1.00
H1       0.46694    0.69156    0.72919   1.00
C5       0.52165    0.82201    0.75454   1.00
C5       0.48002    0.82243    0.75873   1.00
H1       0.59549    0.68672    0.73915   1.00
H1       0.39909    0.69347    0.73022   1.00
H1       0.59948    0.80755    0.75163   1.00
H1       0.40152    0.81188    0.75749   1.00
C6       0.54485    0.85961    0.75490   1.00
C6       0.45881    0.85929    0.77075   1.00
H2       0.56655    0.85865    0.73167   1.00
H2       0.43690    0.85200    0.79260   1.00
H2       0.52714    0.88440    0.74609   1.00
H2       0.47772    0.87894    0.78694   1.00
C6       0.56394    0.86864    0.79548   1.00
C6       0.44058    0.88192    0.73542   1.00
H2       0.57708    0.84206    0.80725   1.00
H2       0.42617    0.86130    0.71581   1.00
C6       0.59541    0.90171    0.79713   1.00
C6       0.41089    0.91535    0.74483   1.00
H2       0.54051    0.87611    0.81577   1.00
H2       0.46454    0.89432    0.71844   1.00
C6       0.63265    0.89054    0.77393   1.00
C6       0.37292    0.89924    0.76349   1.00
C6       0.57926    0.94090    0.78142   1.00
C6       0.42893    0.94646    0.77222   1.00
C6       0.60755    0.90792    0.84034   1.00
C6       0.39946    0.93581    0.70604   1.00
H2       0.64442    0.86265    0.78391   1.00
H2       0.35980    0.87672    0.74514   1.00
H2       0.62670    0.88806    0.74282   1.00
H2       0.37846    0.88653    0.79208   1.00
H2       0.65541    0.91253    0.77748   1.00
H2       0.35137    0.92235    0.76743   1.00
H2       0.60045    0.96437    0.78527   1.00
H2       0.40902    0.97099    0.77634   1.00
H2       0.57275    0.93891    0.75035   1.00
H2       0.43506    0.93420    0.80092   1.00
H2       0.55255    0.94904    0.79672   1.00
H2       0.45615    0.95770    0.76014   1.00
H2       0.61958    0.88114    0.85275   1.00
H2       0.38617    0.91515    0.68575   1.00
H2       0.62975    0.93063    0.84298   1.00
H2       0.37851    0.95928    0.71107   1.00
H2       0.58261    0.91666    0.85811   1.00
H2       0.42498    0.94851    0.69183   1.00
C4       0.98025    0.75010    0.75479   1.00
C4       1.02191    0.75137    0.75568   1.00
C3       0.95897    0.71453    0.75801   1.00
C3       1.04504    0.71782    0.76395   1.00
C3       0.95854    0.78548    0.75047   1.00
C3       1.04170    0.78733    0.74816   1.00
C2       0.89595    0.74770    0.75491   1.00
C2       1.10622    0.75346    0.75562   1.00
C3       0.91811    0.71330    0.75828   1.00
C3       1.08591    0.71871    0.76374   1.00
C3       0.91696    0.78300    0.75109   1.00
C3       1.08336    0.78695    0.74801   1.00
H1       0.97237    0.68812    0.75990   1.00
H1       1.03306    0.69156    0.77081   1.00
C5       0.97835    0.82201    0.74546   1.00
C5       1.01998    0.82243    0.74127   1.00
H1       0.90451    0.68672    0.76085   1.00
H1       1.10091    0.69347    0.76978   1.00
H1       0.90052    0.80755    0.74837   1.00
H1       1.09848    0.81188    0.74251   1.00
C6       0.95515    0.85961    0.74510   1.00
C6       1.04119    0.85929    0.72925   1.00
H2       0.93345    0.85865    0.76833   1.00
H2       1.06310    0.85200    0.70740   1.00
H2       0.97286    0.88440    0.75391   1.00
H2       1.02228    0.87894    0.71306   1.00
C6       0.93606    0.86864    0.70452   1.00
C6       1.05942    0.88192    0.76458   1.00
H2       0.92292    0.84206    0.69275   1.00
H2       1.07383    0.86130    0.78419   1.00
C6       0.90459    0.90171    0.70287   1.00
C6       1.08911    0.91535    0.75517   1.00
H2       0.95949    0.87611    0.68423   1.00
H2       1.03546    0.89432    0.78156   1.00
C6       0.86735    0.89054    0.72607   1.00
C6       1.12708    0.89924    0.73651   1.00
C6       0.92074    0.94090    0.71858   1.00
C6       1.07107    0.94646    0.72778   1.00
C6       0.89245    0.90792    0.65966   1.00
C6       1.10054    0.93581    0.79396   1.00
H2       0.85558    0.86265    0.71609   1.00
H2       1.14020    0.87672    0.75486   1.00
H2       0.87330    0.88806    0.75718   1.00
H2       1.12154    0.88653    0.70792   1.00
H2       0.84459    0.91253    0.72252   1.00
H2       1.14863    0.92235    0.73257   1.00
H2       0.89955    0.96437    0.71473   1.00
H2       1.09098    0.97099    0.72366   1.00
H2       0.92725    0.93891    0.74965   1.00
H2       1.06494    0.93420    0.69908   1.00
H2       0.94745    0.94904    0.70328   1.00
H2       1.04385    0.95770    0.73986   1.00
H2       0.88042    0.88114    0.64725   1.00
H2       1.11383    0.91515    0.81425   1.00
H2       0.87025    0.93063    0.65702   1.00
H2       1.12149    0.95928    0.78893   1.00
H2       0.91739    0.91666    0.64189   1.00
H2       1.07502    0.94851    0.80817   1.00
C4       0.74521    0.51975    0.75010   1.00
C4       0.74432    0.47809    0.75137   1.00
C3       0.74199    0.54103    0.71453   1.00
C3       0.73605    0.45496    0.71782   1.00
C3       0.74953    0.54146    0.78548   1.00
C3       0.75184    0.45830    0.78733   1.00
C2       0.74509    0.60405    0.74770   1.00
C2       0.74438    0.39378    0.75346   1.00
C3       0.74172    0.58189    0.71330   1.00
C3       0.73626    0.41409    0.71871   1.00
C3       0.74891    0.58304    0.78300   1.00
C3       0.75199    0.41664    0.78695   1.00
H1       0.74010    0.52763    0.68812   1.00
H1       0.72919    0.46694    0.69156   1.00
C5       0.75454    0.52165    0.82201   1.00
C5       0.75873    0.48002    0.82243   1.00
H1       0.73915    0.59549    0.68672   1.00
H1       0.73022    0.39909    0.69347   1.00
H1       0.75163    0.59948    0.80755   1.00
H1       0.75749    0.40152    0.81188   1.00
C6       0.75490    0.54485    0.85961   1.00
C6       0.77075    0.45881    0.85929   1.00
H2       0.73167    0.56655    0.85865   1.00
H2       0.79260    0.43690    0.85200   1.00
H2       0.74609    0.52714    0.88440   1.00
H2       0.78694    0.47772    0.87894   1.00
C6       0.79548    0.56394    0.86864   1.00
C6       0.73542    0.44058    0.88192   1.00
H2       0.80725    0.57708    0.84206   1.00
H2       0.71581    0.42617    0.86130   1.00
C6       0.79713    0.59541    0.90171   1.00
C6       0.74483    0.41089    0.91535   1.00
H2       0.81577    0.54051    0.87611   1.00
H2       0.71844    0.46454    0.89432   1.00
C6       0.77393    0.63265    0.89054   1.00
C6       0.76349    0.37292    0.89924   1.00
C6       0.78142    0.57926    0.94090   1.00
C6       0.77222    0.42893    0.94646   1.00
C6       0.84034    0.60755    0.90792   1.00
C6       0.70604    0.39946    0.93581   1.00
H2       0.78391    0.64442    0.86265   1.00
H2       0.74514    0.35980    0.87672   1.00
H2       0.74282    0.62670    0.88806   1.00
H2       0.79208    0.37846    0.88653   1.00
H2       0.77748    0.65541    0.91253   1.00
H2       0.76743    0.35137    0.92235   1.00
H2       0.78527    0.60045    0.96437   1.00
H2       0.77634    0.40902    0.97099   1.00
H2       0.75035    0.57275    0.93891   1.00
H2       0.80092    0.43506    0.93420   1.00
H2       0.79672    0.55255    0.94904   1.00
H2       0.76014    0.45615    0.95770   1.00
H2       0.85275    0.61958    0.88114   1.00
H2       0.68575    0.38617    0.91515   1.00
H2       0.84298    0.62975    0.93063   1.00
H2       0.71107    0.37851    0.95928   1.00
H2       0.85811    0.58261    0.91666   1.00
H2       0.69183    0.42498    0.94851   1.00
C4       0.75010    0.74521    0.51975   1.00
C4       0.75137    0.74432    0.47809   1.00
C3       0.71453    0.74199    0.54103   1.00
C3       0.71782    0.73605    0.45496   1.00
C3       0.78548    0.74953    0.54146   1.00
C3       0.78733    0.75184    0.45830   1.00
C2       0.74770    0.74509    0.60405   1.00
C2       0.75346    0.74438    0.39378   1.00
C3       0.71330    0.74172    0.58189   1.00
C3       0.71871    0.73626    0.41409   1.00
C3       0.78300    0.74891    0.58304   1.00
C3       0.78695    0.75199    0.41664   1.00
H1       0.68812    0.74010    0.52763   1.00
H1       0.69156    0.72919    0.46694   1.00
C5       0.82201    0.75454    0.52165   1.00
C5       0.82243    0.75873    0.48002   1.00
H1       0.68672    0.73915    0.59549   1.00
H1       0.69347    0.73022    0.39909   1.00
H1       0.80755    0.75163    0.59948   1.00
H1       0.81188    0.75749    0.40152   1.00
C6       0.85961    0.75490    0.54485   1.00
C6       0.85929    0.77075    0.45881   1.00
H2       0.85865    0.73167    0.56655   1.00
H2       0.85200    0.79260    0.43690   1.00
H2       0.88440    0.74609    0.52714   1.00
H2       0.87894    0.78694    0.47772   1.00
C6       0.86864    0.79548    0.56394   1.00
C6       0.88192    0.73542    0.44058   1.00
H2       0.84206    0.80725    0.57708   1.00
H2       0.86130    0.71581    0.42617   1.00
C6       0.90171    0.79713    0.59541   1.00
C6       0.91535    0.74483    0.41089   1.00
H2       0.87611    0.81577    0.54051   1.00
H2       0.89432    0.71844    0.46454   1.00
C6       0.89054    0.77393    0.63265   1.00
C6       0.89924    0.76349    0.37292   1.00
C6       0.94090    0.78142    0.57926   1.00
C6       0.94646    0.77222    0.42893   1.00
C6       0.90792    0.84034    0.60755   1.00
C6       0.93581    0.70604    0.39946   1.00
H2       0.86265    0.78391    0.64442   1.00
H2       0.87672    0.74514    0.35980   1.00
H2       0.88806    0.74282    0.62670   1.00
H2       0.88653    0.79208    0.37846   1.00
H2       0.91253    0.77748    0.65541   1.00
H2       0.92235    0.76743    0.35137   1.00
H2       0.96437    0.78527    0.60045   1.00
H2       0.97099    0.77634    0.40902   1.00
H2       0.93891    0.75035    0.57275   1.00
H2       0.93420    0.80092    0.43506   1.00
H2       0.94904    0.79672    0.55255   1.00
H2       0.95770    0.76014    0.45615   1.00
H2       0.88114    0.85275    0.61958   1.00
H2       0.91515    0.68575    0.38617   1.00
H2       0.93063    0.84298    0.62975   1.00
H2       0.95928    0.71107    0.37851   1.00
H2       0.91666    0.85811    0.58261   1.00
H2       0.94851    0.69183    0.42498   1.00
C4       0.25010    0.25479    0.98025   1.00
C4       0.25137    0.25568    1.02191   1.00
C3       0.21453    0.25801    0.95897   1.00
C3       0.21782    0.26395    1.04504   1.00
C3       0.28548    0.25047    0.95854   1.00
C3       0.28733    0.24816    1.04170   1.00
C2       0.24770    0.25491    0.89595   1.00
C2       0.25346    0.25562    1.10622   1.00
C3       0.21330    0.25828    0.91811   1.00
C3       0.21871    0.26374    1.08591   1.00
C3       0.28300    0.25109    0.91696   1.00
C3       0.28695    0.24801    1.08336   1.00
H1       0.18812    0.25990    0.97237   1.00
H1       0.19156    0.27081    1.03306   1.00
C5       0.32201    0.24546    0.97835   1.00
C5       0.32243    0.24127    1.01998   1.00
H1       0.18672    0.26085    0.90451   1.00
H1       0.19347    0.26978    1.10091   1.00
H1       0.30755    0.24837    0.90052   1.00
H1       0.31188    0.24251    1.09848   1.00
C6       0.35961    0.24510    0.95515   1.00
C6       0.35929    0.22925    1.04119   1.00
H2       0.35865    0.26833    0.93345   1.00
H2       0.35200    0.20740    1.06310   1.00
H2       0.38440    0.25391    0.97286   1.00
H2       0.37894    0.21306    1.02228   1.00
C6       0.36864    0.20452    0.93606   1.00
C6       0.38192    0.26458    1.05942   1.00
H2       0.34206    0.19275    0.92292   1.00
H2       0.36130    0.28419    1.07383   1.00
C6       0.40171    0.20287    0.90459   1.00
C6       0.41535    0.25517    1.08911   1.00
H2       0.37611    0.18423    0.95949   1.00
H2       0.39432    0.28156    1.03546   1.00
C6       0.39054    0.22607    0.86735   1.00
C6       0.39924    0.23651    1.12708   1.00
C6       0.44090    0.21858    0.92074   1.00
C6       0.44646    0.22778    1.07107   1.00
C6       0.40792    0.15966    0.89245   1.00
C6       0.43581    0.29396    1.10054   1.00
H2       0.36265    0.21609    0.85558   1.00
H2       0.37672    0.25486    1.14020   1.00
H2       0.38806    0.25718    0.87330   1.00
H2       0.38653    0.20792    1.12154   1.00
H2       0.41253    0.22252    0.84459   1.00
H2       0.42235    0.23257    1.14863   1.00
H2       0.46437    0.21473    0.89955   1.00
H2       0.47099    0.22366    1.09098   1.00
H2       0.43891    0.24965    0.92725   1.00
H2       0.43420    0.19908    1.06494   1.00
H2       0.44904    0.20328    0.94745   1.00
H2       0.45770    0.23986    1.04385   1.00
H2       0.38114    0.14725    0.88042   1.00
H2       0.41515    0.31425    1.11383   1.00
H2       0.43063    0.15702    0.87025   1.00
H2       0.45928    0.28893    1.12149   1.00
H2       0.41666    0.14189    0.91739   1.00
H2       0.44851    0.30817    1.07502   1.00
C4       0.25479    0.48025    0.75010   1.00
C4       0.25568    0.52191    0.75137   1.00
C3       0.25801    0.45897    0.71453   1.00
C3       0.26395    0.54504    0.71782   1.00
C3       0.25047    0.45854    0.78548   1.00
C3       0.24816    0.54170    0.78733   1.00
C2       0.25491    0.39595    0.74770   1.00
C2       0.25562    0.60622    0.75346   1.00
C3       0.25828    0.41811    0.71330   1.00
C3       0.26374    0.58591    0.71871   1.00
C3       0.25109    0.41696    0.78300   1.00
C3       0.24801    0.58336    0.78695   1.00
H1       0.25990    0.47237    0.68812   1.00
H1       0.27081    0.53306    0.69156   1.00
C5       0.24546    0.47835    0.82201   1.00
C5       0.24127    0.51998    0.82243   1.00
H1       0.26085    0.40451    0.68672   1.00
H1       0.26978    0.60091    0.69347   1.00
H1       0.24837    0.40052    0.80755   1.00
H1       0.24251    0.59848    0.81188   1.00
C6       0.24510    0.45515    0.85961   1.00
C6       0.22925    0.54119    0.85929   1.00
H2       0.26833    0.43345    0.85865   1.00
H2       0.20740    0.56310    0.85200   1.00
H2       0.25391    0.47286    0.88440   1.00
H2       0.21306    0.52228    0.87894   1.00
C6       0.20452    0.43606    0.86864   1.00
C6       0.26458    0.55942    0.88192   1.00
H2       0.19275    0.42292    0.84206   1.00
H2       0.28419    0.57383    0.86130   1.00
C6       0.20287    0.40459    0.90171   1.00
C6       0.25517    0.58911    0.91535   1.00
H2       0.18423    0.45949    0.87611   1.00
H2       0.28156    0.53546    0.89432   1.00
C6       0.22607    0.36735    0.89054   1.00
C6       0.23651    0.62708    0.89924   1.00
C6       0.21858    0.42074    0.94090   1.00
C6       0.22778    0.57107    0.94646   1.00
C6       0.15966    0.39245    0.90792   1.00
C6       0.29396    0.60054    0.93581   1.00
H2       0.21609    0.35558    0.86265   1.00
H2       0.25486    0.64020    0.87672   1.00
H2       0.25718    0.37330    0.88806   1.00
H2       0.20792    0.62154    0.88653   1.00
H2       0.22252    0.34459    0.91253   1.00
H2       0.23257    0.64863    0.92235   1.00
H2       0.21473    0.39955    0.96437   1.00
H2       0.22366    0.59098    0.97099   1.00
H2       0.24965    0.42725    0.93891   1.00
H2       0.19908    0.56494    0.93420   1.00
H2       0.20328    0.44745    0.94904   1.00
H2       0.23986    0.54385    0.95770   1.00
H2       0.14725    0.38042    0.88114   1.00
H2       0.31425    0.61383    0.91515   1.00
H2       0.15702    0.37025    0.93063   1.00
H2       0.28893    0.62149    0.95928   1.00
H2       0.14189    0.41739    0.91666   1.00
H2       0.30817    0.57502    0.94851   1.00
C4       0.01975    0.25010    0.74521   1.00
C4       -0.02191   0.25137    0.74432   1.00
C3       0.04103    0.21453    0.74199   1.00
C3       -0.04504   0.21782    0.73605   1.00
C3       0.04146    0.28548    0.74953   1.00
C3       -0.04170   0.28733    0.75184   1.00
C2       0.10405    0.24770    0.74509   1.00
C2       -0.10622   0.25346    0.74438   1.00
C3       0.08189    0.21330    0.74172   1.00
C3       -0.08591   0.21871    0.73626   1.00
C3       0.08304    0.28300    0.74891   1.00
C3       -0.08336   0.28695    0.75199   1.00
H1       0.02763    0.18812    0.74010   1.00
H1       -0.03306   0.19156    0.72919   1.00
C5       0.02165    0.32201    0.75454   1.00
C5       -0.01998   0.32243    0.75873   1.00
H1       0.09549    0.18672    0.73915   1.00
H1       -0.10091   0.19347    0.73022   1.00
H1       0.09948    0.30755    0.75163   1.00
H1       -0.09848   0.31188    0.75749   1.00
C6       0.04485    0.35961    0.75490   1.00
C6       -0.04119   0.35929    0.77075   1.00
H2       0.06655    0.35865    0.73167   1.00
H2       -0.06310   0.35200    0.79260   1.00
H2       0.02714    0.38440    0.74609   1.00
H2       -0.02228   0.37894    0.78694   1.00
C6       0.06394    0.36864    0.79548   1.00
C6       -0.05942   0.38192    0.73542   1.00
H2       0.07708    0.34206    0.80725   1.00
H2       -0.07383   0.36130    0.71581   1.00
C6       0.09541    0.40171    0.79713   1.00
C6       -0.08911   0.41535    0.74483   1.00
H2       0.04051    0.37611    0.81577   1.00
H2       -0.03546   0.39432    0.71844   1.00
C6       0.13265    0.39054    0.77393   1.00
C6       -0.12708   0.39924    0.76349   1.00
C6       0.07926    0.44090    0.78142   1.00
C6       -0.07107   0.44646    0.77222   1.00
C6       0.10755    0.40792    0.84034   1.00
C6       -0.10054   0.43581    0.70604   1.00
H2       0.14442    0.36265    0.78391   1.00
H2       -0.14020   0.37672    0.74514   1.00
H2       0.12670    0.38806    0.74282   1.00
H2       -0.12154   0.38653    0.79208   1.00
H2       0.15541    0.41253    0.77748   1.00
H2       -0.14863   0.42235    0.76743   1.00
H2       0.10045    0.46437    0.78527   1.00
H2       -0.09098   0.47099    0.77634   1.00
H2       0.07275    0.43891    0.75035   1.00
H2       -0.06494   0.43420    0.80092   1.00
H2       0.05255    0.44904    0.79672   1.00
H2       -0.04385   0.45770    0.76014   1.00
H2       0.11958    0.38114    0.85275   1.00
H2       -0.11383   0.41515    0.68575   1.00
H2       0.12975    0.43063    0.84298   1.00
H2       -0.12149   0.45928    0.71107   1.00
H2       0.08261    0.41666    0.85811   1.00
H2       -0.07502   0.44851    0.69183   1.00
C4       0.48025    0.25010    0.75479   1.00
C4       0.52191    0.25137    0.75568   1.00
C3       0.45897    0.21453    0.75801   1.00
C3       0.54504    0.21782    0.76395   1.00
C3       0.45854    0.28548    0.75047   1.00
C3       0.54170    0.28733    0.74816   1.00
C2       0.39595    0.24770    0.75491   1.00
C2       0.60622    0.25346    0.75562   1.00
C3       0.41811    0.21330    0.75828   1.00
C3       0.58591    0.21871    0.76374   1.00
C3       0.41696    0.28300    0.75109   1.00
C3       0.58336    0.28695    0.74801   1.00
H1       0.47237    0.18812    0.75990   1.00
H1       0.53306    0.19156    0.77081   1.00
C5       0.47835    0.32201    0.74546   1.00
C5       0.51998    0.32243    0.74127   1.00
H1       0.40451    0.18672    0.76085   1.00
H1       0.60091    0.19347    0.76978   1.00
H1       0.40052    0.30755    0.74837   1.00
H1       0.59848    0.31188    0.74251   1.00
C6       0.45515    0.35961    0.74510   1.00
C6       0.54119    0.35929    0.72925   1.00
H2       0.43345    0.35865    0.76833   1.00
H2       0.56310    0.35200    0.70740   1.00
H2       0.47286    0.38440    0.75391   1.00
H2       0.52228    0.37894    0.71306   1.00
C6       0.43606    0.36864    0.70452   1.00
C6       0.55942    0.38192    0.76458   1.00
H2       0.42292    0.34206    0.69275   1.00
H2       0.57383    0.36130    0.78419   1.00
C6       0.40459    0.40171    0.70287   1.00
C6       0.58911    0.41535    0.75517   1.00
H2       0.45949    0.37611    0.68423   1.00
H2       0.53546    0.39432    0.78156   1.00
C6       0.36735    0.39054    0.72607   1.00
C6       0.62708    0.39924    0.73651   1.00
C6       0.42074    0.44090    0.71858   1.00
C6       0.57107    0.44646    0.72778   1.00
C6       0.39245    0.40792    0.65966   1.00
C6       0.60054    0.43581    0.79396   1.00
H2       0.35558    0.36265    0.71609   1.00
H2       0.64020    0.37672    0.75486   1.00
H2       0.37330    0.38806    0.75718   1.00
H2       0.62154    0.38653    0.70792   1.00
H2       0.34459    0.41253    0.72252   1.00
H2       0.64863    0.42235    0.73257   1.00
H2       0.39955    0.46437    0.71473   1.00
H2       0.59098    0.47099    0.72366   1.00
H2       0.42725    0.43891    0.74965   1.00
H2       0.56494    0.43420    0.69908   1.00
H2       0.44745    0.44904    0.70328   1.00
H2       0.54385    0.45770    0.73986   1.00
H2       0.38042    0.38114    0.64725   1.00
H2       0.61383    0.41515    0.81425   1.00
H2       0.37025    0.43063    0.65702   1.00
H2       0.62149    0.45928    0.78893   1.00
H2       0.41739    0.41666    0.64189   1.00
H2       0.57502    0.44851    0.80817   1.00
C4       0.24521    0.01975    0.75010   1.00
C4       0.24432    -0.02191   0.75137   1.00
C3       0.24199    0.04103    0.71453   1.00
C3       0.23605    -0.04504   0.71782   1.00
C3       0.24953    0.04146    0.78548   1.00
C3       0.25184    -0.04170   0.78733   1.00
C2       0.24509    0.10405    0.74770   1.00
C2       0.24438    -0.10622   0.75346   1.00
C3       0.24172    0.08189    0.71330   1.00
C3       0.23626    -0.08591   0.71871   1.00
C3       0.24891    0.08304    0.78300   1.00
C3       0.25199    -0.08336   0.78695   1.00
H1       0.24010    0.02763    0.68812   1.00
H1       0.22919    -0.03306   0.69156   1.00
C5       0.25454    0.02165    0.82201   1.00
C5       0.25873    -0.01998   0.82243   1.00
H1       0.23915    0.09549    0.68672   1.00
H1       0.23022    -0.10091   0.69347   1.00
H1       0.25163    0.09948    0.80755   1.00
H1       0.25749    -0.09848   0.81188   1.00
C6       0.25490    0.04485    0.85961   1.00
C6       0.27075    -0.04119   0.85929   1.00
H2       0.23167    0.06655    0.85865   1.00
H2       0.29260    -0.06310   0.85200   1.00
H2       0.24609    0.02714    0.88440   1.00
H2       0.28694    -0.02228   0.87894   1.00
C6       0.29548    0.06394    0.86864   1.00
C6       0.23542    -0.05942   0.88192   1.00
H2       0.30725    0.07708    0.84206   1.00
H2       0.21581    -0.07383   0.86130   1.00
C6       0.29713    0.09541    0.90171   1.00
C6       0.24483    -0.08911   0.91535   1.00
H2       0.31577    0.04051    0.87611   1.00
H2       0.21844    -0.03546   0.89432   1.00
C6       0.27393    0.13265    0.89054   1.00
C6       0.26349    -0.12708   0.89924   1.00
C6       0.28142    0.07926    0.94090   1.00
C6       0.27222    -0.07107   0.94646   1.00
C6       0.34034    0.10755    0.90792   1.00
C6       0.20604    -0.10054   0.93581   1.00
H2       0.28391    0.14442    0.86265   1.00
H2       0.24514    -0.14020   0.87672   1.00
H2       0.24282    0.12670    0.88806   1.00
H2       0.29208    -0.12154   0.88653   1.00
H2       0.27748    0.15541    0.91253   1.00
H2       0.26743    -0.14863   0.92235   1.00
H2       0.28527    0.10045    0.96437   1.00
H2       0.27634    -0.09098   0.97099   1.00
H2       0.25035    0.07275    0.93891   1.00
H2       0.30092    -0.06494   0.93420   1.00
H2       0.29672    0.05255    0.94904   1.00
H2       0.26014    -0.04385   0.95770   1.00
H2       0.35275    0.11958    0.88114   1.00
H2       0.18575    -0.11383   0.91515   1.00
H2       0.34298    0.12975    0.93063   1.00
H2       0.21107    -0.12149   0.95928   1.00
H2       0.35811    0.08261    0.91666   1.00
H2       0.19183    -0.07502   0.94851   1.00
C4       0.25010    0.24521    0.51975   1.00
C4       0.25137    0.24432    0.47809   1.00
C3       0.21453    0.24199    0.54103   1.00
C3       0.21782    0.23605    0.45496   1.00
C3       0.28548    0.24953    0.54146   1.00
C3       0.28733    0.25184    0.45830   1.00
C2       0.24770    0.24509    0.60405   1.00
C2       0.25346    0.24438    0.39378   1.00
C3       0.21330    0.24172    0.58189   1.00
C3       0.21871    0.23626    0.41409   1.00
C3       0.28300    0.24891    0.58304   1.00
C3       0.28695    0.25199    0.41664   1.00
H1       0.18812    0.24010    0.52763   1.00
H1       0.19156    0.22919    0.46694   1.00
C5       0.32201    0.25454    0.52165   1.00
C5       0.32243    0.25873    0.48002   1.00
H1       0.18672    0.23915    0.59549   1.00
H1       0.19347    0.23022    0.39909   1.00
H1       0.30755    0.25163    0.59948   1.00
H1       0.31188    0.25749    0.40152   1.00
C6       0.35961    0.25490    0.54485   1.00
C6       0.35929    0.27075    0.45881   1.00
H2       0.35865    0.23167    0.56655   1.00
H2       0.35200    0.29260    0.43690   1.00
H2       0.38440    0.24609    0.52714   1.00
H2       0.37894    0.28694    0.47772   1.00
C6       0.36864    0.29548    0.56394   1.00
C6       0.38192    0.23542    0.44058   1.00
H2       0.34206    0.30725    0.57708   1.00
H2       0.36130    0.21581    0.42617   1.00
C6       0.40171    0.29713    0.59541   1.00
C6       0.41535    0.24483    0.41089   1.00
H2       0.37611    0.31577    0.54051   1.00
H2       0.39432    0.21844    0.46454   1.00
C6       0.39054    0.27393    0.63265   1.00
C6       0.39924    0.26349    0.37292   1.00
C6       0.44090    0.28142    0.57926   1.00
C6       0.44646    0.27222    0.42893   1.00
C6       0.40792    0.34034    0.60755   1.00
C6       0.43581    0.20604    0.39946   1.00
H2       0.36265    0.28391    0.64442   1.00
H2       0.37672    0.24514    0.35980   1.00
H2       0.38806    0.24282    0.62670   1.00
H2       0.38653    0.29208    0.37846   1.00
H2       0.41253    0.27748    0.65541   1.00
H2       0.42235    0.26743    0.35137   1.00
H2       0.46437    0.28527    0.60045   1.00
H2       0.47099    0.27634    0.40902   1.00
H2       0.43891    0.25035    0.57275   1.00
H2       0.43420    0.30092    0.43506   1.00
H2       0.44904    0.29672    0.55255   1.00
H2       0.45770    0.26014    0.45615   1.00
H2       0.38114    0.35275    0.61958   1.00
H2       0.41515    0.18575    0.38617   1.00
H2       0.43063    0.34298    0.62975   1.00
H2       0.45928    0.21107    0.37851   1.00
H2       0.41666    0.35811    0.58261   1.00
H2       0.44851    0.19183    0.42498   1.00
C4       0.25010    0.75479    0.48025   1.00
C4       0.25137    0.75568    0.52191   1.00
C3       0.21453    0.75801    0.45897   1.00
C3       0.21782    0.76395    0.54504   1.00
C3       0.28548    0.75047    0.45854   1.00
C3       0.28733    0.74816    0.54170   1.00
C2       0.24770    0.75491    0.39595   1.00
C2       0.25346    0.75562    0.60622   1.00
C3       0.21330    0.75828    0.41811   1.00
C3       0.21871    0.76374    0.58591   1.00
C3       0.28300    0.75109    0.41696   1.00
C3       0.28695    0.74801    0.58336   1.00
H1       0.18812    0.75990    0.47237   1.00
H1       0.19156    0.77081    0.53306   1.00
C5       0.32201    0.74546    0.47835   1.00
C5       0.32243    0.74127    0.51998   1.00
H1       0.18672    0.76085    0.40451   1.00
H1       0.19347    0.76978    0.60091   1.00
H1       0.30755    0.74837    0.40052   1.00
H1       0.31188    0.74251    0.59848   1.00
C6       0.35961    0.74510    0.45515   1.00
C6       0.35929    0.72925    0.54119   1.00
H2       0.35865    0.76833    0.43345   1.00
H2       0.35200    0.70740    0.56310   1.00
H2       0.38440    0.75391    0.47286   1.00
H2       0.37894    0.71306    0.52228   1.00
C6       0.36864    0.70452    0.43606   1.00
C6       0.38192    0.76458    0.55942   1.00
H2       0.34206    0.69275    0.42292   1.00
H2       0.36130    0.78419    0.57383   1.00
C6       0.40171    0.70287    0.40459   1.00
C6       0.41535    0.75517    0.58911   1.00
H2       0.37611    0.68423    0.45949   1.00
H2       0.39432    0.78156    0.53546   1.00
C6       0.39054    0.72607    0.36735   1.00
C6       0.39924    0.73651    0.62708   1.00
C6       0.44090    0.71858    0.42074   1.00
C6       0.44646    0.72778    0.57107   1.00
C6       0.40792    0.65966    0.39245   1.00
C6       0.43581    0.79396    0.60054   1.00
H2       0.36265    0.71609    0.35558   1.00
H2       0.37672    0.75486    0.64020   1.00
H2       0.38806    0.75718    0.37330   1.00
H2       0.38653    0.70792    0.62154   1.00
H2       0.41253    0.72252    0.34459   1.00
H2       0.42235    0.73257    0.64863   1.00
H2       0.46437    0.71473    0.39955   1.00
H2       0.47099    0.72366    0.59098   1.00
H2       0.43891    0.74965    0.42725   1.00
H2       0.43420    0.69908    0.56494   1.00
H2       0.44904    0.70328    0.44745   1.00
H2       0.45770    0.73986    0.54385   1.00
H2       0.38114    0.64725    0.38042   1.00
H2       0.41515    0.81425    0.61383   1.00
H2       0.43063    0.65702    0.37025   1.00
H2       0.45928    0.78893    0.62149   1.00
H2       0.41666    0.64189    0.41739   1.00
H2       0.44851    0.80817    0.57502   1.00
C4       0.25479    0.98025    0.25010   1.00
C4       0.25568    1.02191    0.25137   1.00
C3       0.25801    0.95897    0.21453   1.00
C3       0.26395    1.04504    0.21782   1.00
C3       0.25047    0.95854    0.28548   1.00
C3       0.24816    1.04170    0.28733   1.00
C2       0.25491    0.89595    0.24770   1.00
C2       0.25562    1.10622    0.25346   1.00
C3       0.25828    0.91811    0.21330   1.00
C3       0.26374    1.08591    0.21871   1.00
C3       0.25109    0.91696    0.28300   1.00
C3       0.24801    1.08336    0.28695   1.00
H1       0.25990    0.97237    0.18812   1.00
H1       0.27081    1.03306    0.19156   1.00
C5       0.24546    0.97835    0.32201   1.00
C5       0.24127    1.01998    0.32243   1.00
H1       0.26085    0.90451    0.18672   1.00
H1       0.26978    1.10091    0.19347   1.00
H1       0.24837    0.90052    0.30755   1.00
H1       0.24251    1.09848    0.31188   1.00
C6       0.24510    0.95515    0.35961   1.00
C6       0.22925    1.04119    0.35929   1.00
H2       0.26833    0.93345    0.35865   1.00
H2       0.20740    1.06310    0.35200   1.00
H2       0.25391    0.97286    0.38440   1.00
H2       0.21306    1.02228    0.37894   1.00
C6       0.20452    0.93606    0.36864   1.00
C6       0.26458    1.05942    0.38192   1.00
H2       0.19275    0.92292    0.34206   1.00
H2       0.28419    1.07383    0.36130   1.00
C6       0.20287    0.90459    0.40171   1.00
C6       0.25517    1.08911    0.41535   1.00
H2       0.18423    0.95949    0.37611   1.00
H2       0.28156    1.03546    0.39432   1.00
C6       0.22607    0.86735    0.39054   1.00
C6       0.23651    1.12708    0.39924   1.00
C6       0.21858    0.92074    0.44090   1.00
C6       0.22778    1.07107    0.44646   1.00
C6       0.15966    0.89245    0.40792   1.00
C6       0.29396    1.10054    0.43581   1.00
H2       0.21609    0.85558    0.36265   1.00
H2       0.25486    1.14020    0.37672   1.00
H2       0.25718    0.87330    0.38806   1.00
H2       0.20792    1.12154    0.38653   1.00
H2       0.22252    0.84459    0.41253   1.00
H2       0.23257    1.14863    0.42235   1.00
H2       0.21473    0.89955    0.46437   1.00
H2       0.22366    1.09098    0.47099   1.00
H2       0.24965    0.92725    0.43891   1.00
H2       0.19908    1.06494    0.43420   1.00
H2       0.20328    0.94745    0.44904   1.00
H2       0.23986    1.04385    0.45770   1.00
H2       0.14725    0.88042    0.38114   1.00
H2       0.31425    1.11383    0.41515   1.00
H2       0.15702    0.87025    0.43063   1.00
H2       0.28893    1.12149    0.45928   1.00
H2       0.14189    0.91739    0.41666   1.00
H2       0.30817    1.07502    0.44851   1.00
C4       0.01975    0.75010    0.24521   1.00
C4       -0.02191   0.75137    0.24432   1.00
C3       0.04103    0.71453    0.24199   1.00
C3       -0.04504   0.71782    0.23605   1.00
C3       0.04146    0.78548    0.24953   1.00
C3       -0.04170   0.78733    0.25184   1.00
C2       0.10405    0.74770    0.24509   1.00
C2       -0.10622   0.75346    0.24438   1.00
C3       0.08189    0.71330    0.24172   1.00
C3       -0.08591   0.71871    0.23626   1.00
C3       0.08304    0.78300    0.24891   1.00
C3       -0.08336   0.78695    0.25199   1.00
H1       0.02763    0.68812    0.24010   1.00
H1       -0.03306   0.69156    0.22919   1.00
C5       0.02165    0.82201    0.25454   1.00
C5       -0.01998   0.82243    0.25873   1.00
H1       0.09549    0.68672    0.23915   1.00
H1       -0.10091   0.69347    0.23022   1.00
H1       0.09948    0.80755    0.25163   1.00
H1       -0.09848   0.81188    0.25749   1.00
C6       0.04485    0.85961    0.25490   1.00
C6       -0.04119   0.85929    0.27075   1.00
H2       0.06655    0.85865    0.23167   1.00
H2       -0.06310   0.85200    0.29260   1.00
H2       0.02714    0.88440    0.24609   1.00
H2       -0.02228   0.87894    0.28694   1.00
C6       0.06394    0.86864    0.29548   1.00
C6       -0.05942   0.88192    0.23542   1.00
H2       0.07708    0.84206    0.30725   1.00
H2       -0.07383   0.86130    0.21581   1.00
C6       0.09541    0.90171    0.29713   1.00
C6       -0.08911   0.91535    0.24483   1.00
H2       0.04051    0.87611    0.31577   1.00
H2       -0.03546   0.89432    0.21844   1.00
C6       0.13265    0.89054    0.27393   1.00
C6       -0.12708   0.89924    0.26349   1.00
C6       0.07926    0.94090    0.28142   1.00
C6       -0.07107   0.94646    0.27222   1.00
C6       0.10755    0.90792    0.34034   1.00
C6       -0.10054   0.93581    0.20604   1.00
H2       0.14442    0.86265    0.28391   1.00
H2       -0.14020   0.87672    0.24514   1.00
H2       0.12670    0.88806    0.24282   1.00
H2       -0.12154   0.88653    0.29208   1.00
H2       0.15541    0.91253    0.27748   1.00
H2       -0.14863   0.92235    0.26743   1.00
H2       0.10045    0.96437    0.28527   1.00
H2       -0.09098   0.97099    0.27634   1.00
H2       0.07275    0.93891    0.25035   1.00
H2       -0.06494   0.93420    0.30092   1.00
H2       0.05255    0.94904    0.29672   1.00
H2       -0.04385   0.95770    0.26014   1.00
H2       0.11958    0.88114    0.35275   1.00
H2       -0.11383   0.91515    0.18575   1.00
H2       0.12975    0.93063    0.34298   1.00
H2       -0.12149   0.95928    0.21107   1.00
H2       0.08261    0.91666    0.35811   1.00
H2       -0.07502   0.94851    0.19183   1.00
C4       0.48025    0.75010    0.25479   1.00
C4       0.52191    0.75137    0.25568   1.00
C3       0.45897    0.71453    0.25801   1.00
C3       0.54504    0.71782    0.26395   1.00
C3       0.45854    0.78548    0.25047   1.00
C3       0.54170    0.78733    0.24816   1.00
C2       0.39595    0.74770    0.25491   1.00
C2       0.60622    0.75346    0.25562   1.00
C3       0.41811    0.71330    0.25828   1.00
C3       0.58591    0.71871    0.26374   1.00
C3       0.41696    0.78300    0.25109   1.00
C3       0.58336    0.78695    0.24801   1.00
H1       0.47237    0.68812    0.25990   1.00
H1       0.53306    0.69156    0.27081   1.00
C5       0.47835    0.82201    0.24546   1.00
C5       0.51998    0.82243    0.24127   1.00
H1       0.40451    0.68672    0.26085   1.00
H1       0.60091    0.69347    0.26978   1.00
H1       0.40052    0.80755    0.24837   1.00
H1       0.59848    0.81188    0.24251   1.00
C6       0.45515    0.85961    0.24510   1.00
C6       0.54119    0.85929    0.22925   1.00
H2       0.43345    0.85865    0.26833   1.00
H2       0.56310    0.85200    0.20740   1.00
H2       0.47286    0.88440    0.25391   1.00
H2       0.52228    0.87894    0.21306   1.00
C6       0.43606    0.86864    0.20452   1.00
C6       0.55942    0.88192    0.26458   1.00
H2       0.42292    0.84206    0.19275   1.00
H2       0.57383    0.86130    0.28419   1.00
C6       0.40459    0.90171    0.20287   1.00
C6       0.58911    0.91535    0.25517   1.00
H2       0.45949    0.87611    0.18423   1.00
H2       0.53546    0.89432    0.28156   1.00
C6       0.36735    0.89054    0.22607   1.00
C6       0.62708    0.89924    0.23651   1.00
C6       0.42074    0.94090    0.21858   1.00
C6       0.57107    0.94646    0.22778   1.00
C6       0.39245    0.90792    0.15966   1.00
C6       0.60054    0.93581    0.29396   1.00
H2       0.35558    0.86265    0.21609   1.00
H2       0.64020    0.87672    0.25486   1.00
H2       0.37330    0.88806    0.25718   1.00
H2       0.62154    0.88653    0.20792   1.00
H2       0.34459    0.91253    0.22252   1.00
H2       0.64863    0.92235    0.23257   1.00
H2       0.39955    0.96437    0.21473   1.00
H2       0.59098    0.97099    0.22366   1.00
H2       0.42725    0.93891    0.24965   1.00
H2       0.56494    0.93420    0.19908   1.00
H2       0.44745    0.94904    0.20328   1.00
H2       0.54385    0.95770    0.23986   1.00
H2       0.38042    0.88114    0.14725   1.00
H2       0.61383    0.91515    0.31425   1.00
H2       0.37025    0.93063    0.15702   1.00
H2       0.62149    0.95928    0.28893   1.00
H2       0.41739    0.91666    0.14189   1.00
H2       0.57502    0.94851    0.30817   1.00
C4       0.24521    0.51975    0.25010   1.00
C4       0.24432    0.47809    0.25137   1.00
C3       0.24199    0.54103    0.21453   1.00
C3       0.23605    0.45496    0.21782   1.00
C3       0.24953    0.54146    0.28548   1.00
C3       0.25184    0.45830    0.28733   1.00
C2       0.24509    0.60405    0.24770   1.00
C2       0.24438    0.39378    0.25346   1.00
C3       0.24172    0.58189    0.21330   1.00
C3       0.23626    0.41409    0.21871   1.00
C3       0.24891    0.58304    0.28300   1.00
C3       0.25199    0.41664    0.28695   1.00
H1       0.24010    0.52763    0.18812   1.00
H1       0.22919    0.46694    0.19156   1.00
C5       0.25454    0.52165    0.32201   1.00
C5       0.25873    0.48002    0.32243   1.00
H1       0.23915    0.59549    0.18672   1.00
H1       0.23022    0.39909    0.19347   1.00
H1       0.25163    0.59948    0.30755   1.00
H1       0.25749    0.40152    0.31188   1.00
C6       0.25490    0.54485    0.35961   1.00
C6       0.27075    0.45881    0.35929   1.00
H2       0.23167    0.56655    0.35865   1.00
H2       0.29260    0.43690    0.35200   1.00
H2       0.24609    0.52714    0.38440   1.00
H2       0.28694    0.47772    0.37894   1.00
C6       0.29548    0.56394    0.36864   1.00
C6       0.23542    0.44058    0.38192   1.00
H2       0.30725    0.57708    0.34206   1.00
H2       0.21581    0.42617    0.36130   1.00
C6       0.29713    0.59541    0.40171   1.00
C6       0.24483    0.41089    0.41535   1.00
H2       0.31577    0.54051    0.37611   1.00
H2       0.21844    0.46454    0.39432   1.00
C6       0.27393    0.63265    0.39054   1.00
C6       0.26349    0.37292    0.39924   1.00
C6       0.28142    0.57926    0.44090   1.00
C6       0.27222    0.42893    0.44646   1.00
C6       0.34034    0.60755    0.40792   1.00
C6       0.20604    0.39946    0.43581   1.00
H2       0.28391    0.64442    0.36265   1.00
H2       0.24514    0.35980    0.37672   1.00
H2       0.24282    0.62670    0.38806   1.00
H2       0.29208    0.37846    0.38653   1.00
H2       0.27748    0.65541    0.41253   1.00
H2       0.26743    0.35137    0.42235   1.00
H2       0.28527    0.60045    0.46437   1.00
H2       0.27634    0.40902    0.47099   1.00
H2       0.25035    0.57275    0.43891   1.00
H2       0.30092    0.43506    0.43420   1.00
H2       0.29672    0.55255    0.44904   1.00
H2       0.26014    0.45615    0.45770   1.00
H2       0.35275    0.61958    0.38114   1.00
H2       0.18575    0.38617    0.41515   1.00
H2       0.34298    0.62975    0.43063   1.00
H2       0.21107    0.37851    0.45928   1.00
H2       0.35811    0.58261    0.41666   1.00
H2       0.19183    0.42498    0.44851   1.00
C4       0.25010    0.74521    0.01975   1.00
C4       0.25137    0.74432    -0.02191   1.00
C3       0.21453    0.74199    0.04103   1.00
C3       0.21782    0.73605    -0.04504   1.00
C3       0.28548    0.74953    0.04146   1.00
C3       0.28733    0.75184    -0.04170   1.00
C2       0.24770    0.74509    0.10405   1.00
C2       0.25346    0.74438    -0.10622   1.00
C3       0.21330    0.74172    0.08189   1.00
C3       0.21871    0.73626    -0.08591   1.00
C3       0.28300    0.74891    0.08304   1.00
C3       0.28695    0.75199    -0.08336   1.00
H1       0.18812    0.74010    0.02763   1.00
H1       0.19156    0.72919    -0.03306   1.00
C5       0.32201    0.75454    0.02165   1.00
C5       0.32243    0.75873    -0.01998   1.00
H1       0.18672    0.73915    0.09549   1.00
H1       0.19347    0.73022    -0.10091   1.00
H1       0.30755    0.75163    0.09948   1.00
H1       0.31188    0.75749    -0.09848   1.00
C6       0.35961    0.75490    0.04485   1.00
C6       0.35929    0.77075    -0.04119   1.00
H2       0.35865    0.73167    0.06655   1.00
H2       0.35200    0.79260    -0.06310   1.00
H2       0.38440    0.74609    0.02714   1.00
H2       0.37894    0.78694    -0.02228   1.00
C6       0.36864    0.79548    0.06394   1.00
C6       0.38192    0.73542    -0.05942   1.00
H2       0.34206    0.80725    0.07708   1.00
H2       0.36130    0.71581    -0.07383   1.00
C6       0.40171    0.79713    0.09541   1.00
C6       0.41535    0.74483    -0.08911   1.00
H2       0.37611    0.81577    0.04051   1.00
H2       0.39432    0.71844    -0.03546   1.00
C6       0.39054    0.77393    0.13265   1.00
C6       0.39924    0.76349    -0.12708   1.00
C6       0.44090    0.78142    0.07926   1.00
C6       0.44646    0.77222    -0.07107   1.00
C6       0.40792    0.84034    0.10755   1.00
C6       0.43581    0.70604    -0.10054   1.00
H2       0.36265    0.78391    0.14442   1.00
H2       0.37672    0.74514    -0.14020   1.00
H2       0.38806    0.74282    0.12670   1.00
H2       0.38653    0.79208    -0.12154   1.00
H2       0.41253    0.77748    0.15541   1.00
H2       0.42235    0.76743    -0.14863   1.00
H2       0.46437    0.78527    0.10045   1.00
H2       0.47099    0.77634    -0.09098   1.00
H2       0.43891    0.75035    0.07275   1.00
H2       0.43420    0.80092    -0.06494   1.00
H2       0.44904    0.79672    0.05255   1.00
H2       0.45770    0.76014    -0.04385   1.00
H2       0.38114    0.85275    0.11958   1.00
H2       0.41515    0.68575    -0.11383   1.00
H2       0.43063    0.84298    0.12975   1.00
H2       0.45928    0.71107    -0.12149   1.00
H2       0.41666    0.85811    0.08261   1.00
H2       0.44851    0.69183    -0.07502   1.00
C4       0.75010    0.25479    0.48025   1.00
C4       0.75137    0.25568    0.52191   1.00
C3       0.71453    0.25801    0.45897   1.00
C3       0.71782    0.26395    0.54504   1.00
C3       0.78548    0.25047    0.45854   1.00
C3       0.78733    0.24816    0.54170   1.00
C2       0.74770    0.25491    0.39595   1.00
C2       0.75346    0.25562    0.60622   1.00
C3       0.71330    0.25828    0.41811   1.00
C3       0.71871    0.26374    0.58591   1.00
C3       0.78300    0.25109    0.41696   1.00
C3       0.78695    0.24801    0.58336   1.00
H1       0.68812    0.25990    0.47237   1.00
H1       0.69156    0.27081    0.53306   1.00
C5       0.82201    0.24546    0.47835   1.00
C5       0.82243    0.24127    0.51998   1.00
H1       0.68672    0.26085    0.40451   1.00
H1       0.69347    0.26978    0.60091   1.00
H1       0.80755    0.24837    0.40052   1.00
H1       0.81188    0.24251    0.59848   1.00
C6       0.85961    0.24510    0.45515   1.00
C6       0.85929    0.22925    0.54119   1.00
H2       0.85865    0.26833    0.43345   1.00
H2       0.85200    0.20740    0.56310   1.00
H2       0.88440    0.25391    0.47286   1.00
H2       0.87894    0.21306    0.52228   1.00
C6       0.86864    0.20452    0.43606   1.00
C6       0.88192    0.26458    0.55942   1.00
H2       0.84206    0.19275    0.42292   1.00
H2       0.86130    0.28419    0.57383   1.00
C6       0.90171    0.20287    0.40459   1.00
C6       0.91535    0.25517    0.58911   1.00
H2       0.87611    0.18423    0.45949   1.00
H2       0.89432    0.28156    0.53546   1.00
C6       0.89054    0.22607    0.36735   1.00
C6       0.89924    0.23651    0.62708   1.00
C6       0.94090    0.21858    0.42074   1.00
C6       0.94646    0.22778    0.57107   1.00
C6       0.90792    0.15966    0.39245   1.00
C6       0.93581    0.29396    0.60054   1.00
H2       0.86265    0.21609    0.35558   1.00
H2       0.87672    0.25486    0.64020   1.00
H2       0.88806    0.25718    0.37330   1.00
H2       0.88653    0.20792    0.62154   1.00
H2       0.91253    0.22252    0.34459   1.00
H2       0.92235    0.23257    0.64863   1.00
H2       0.96437    0.21473    0.39955   1.00
H2       0.97099    0.22366    0.59098   1.00
H2       0.93891    0.24965    0.42725   1.00
H2       0.93420    0.19908    0.56494   1.00
H2       0.94904    0.20328    0.44745   1.00
H2       0.95770    0.23986    0.54385   1.00
H2       0.88114    0.14725    0.38042   1.00
H2       0.91515    0.31425    0.61383   1.00
H2       0.93063    0.15702    0.37025   1.00
H2       0.95928    0.28893    0.62149   1.00
H2       0.91666    0.14189    0.41739   1.00
H2       0.94851    0.30817    0.57502   1.00
C4       0.75479    0.48025    0.25010   1.00
C4       0.75568    0.52191    0.25137   1.00
C3       0.75801    0.45897    0.21453   1.00
C3       0.76395    0.54504    0.21782   1.00
C3       0.75047    0.45854    0.28548   1.00
C3       0.74816    0.54170    0.28733   1.00
C2       0.75491    0.39595    0.24770   1.00
C2       0.75562    0.60622    0.25346   1.00
C3       0.75828    0.41811    0.21330   1.00
C3       0.76374    0.58591    0.21871   1.00
C3       0.75109    0.41696    0.28300   1.00
C3       0.74801    0.58336    0.28695   1.00
H1       0.75990    0.47237    0.18812   1.00
H1       0.77081    0.53306    0.19156   1.00
C5       0.74546    0.47835    0.32201   1.00
C5       0.74127    0.51998    0.32243   1.00
H1       0.76085    0.40451    0.18672   1.00
H1       0.76978    0.60091    0.19347   1.00
H1       0.74837    0.40052    0.30755   1.00
H1       0.74251    0.59848    0.31188   1.00
C6       0.74510    0.45515    0.35961   1.00
C6       0.72925    0.54119    0.35929   1.00
H2       0.76833    0.43345    0.35865   1.00
H2       0.70740    0.56310    0.35200   1.00
H2       0.75391    0.47286    0.38440   1.00
H2       0.71306    0.52228    0.37894   1.00
C6       0.70452    0.43606    0.36864   1.00
C6       0.76458    0.55942    0.38192   1.00
H2       0.69275    0.42292    0.34206   1.00
H2       0.78419    0.57383    0.36130   1.00
C6       0.70287    0.40459    0.40171   1.00
C6       0.75517    0.58911    0.41535   1.00
H2       0.68423    0.45949    0.37611   1.00
H2       0.78156    0.53546    0.39432   1.00
C6       0.72607    0.36735    0.39054   1.00
C6       0.73651    0.62708    0.39924   1.00
C6       0.71858    0.42074    0.44090   1.00
C6       0.72778    0.57107    0.44646   1.00
C6       0.65966    0.39245    0.40792   1.00
C6       0.79396    0.60054    0.43581   1.00
H2       0.71609    0.35558    0.36265   1.00
H2       0.75486    0.64020    0.37672   1.00
H2       0.75718    0.37330    0.38806   1.00
H2       0.70792    0.62154    0.38653   1.00
H2       0.72252    0.34459    0.41253   1.00
H2       0.73257    0.64863    0.42235   1.00
H2       0.71473    0.39955    0.46437   1.00
H2       0.72366    0.59098    0.47099   1.00
H2       0.74965    0.42725    0.43891   1.00
H2       0.69908    0.56494    0.43420   1.00
H2       0.70328    0.44745    0.44904   1.00
H2       0.73986    0.54385    0.45770   1.00
H2       0.64725    0.38042    0.38114   1.00
H2       0.81425    0.61383    0.41515   1.00
H2       0.65702    0.37025    0.43063   1.00
H2       0.78893    0.62149    0.45928   1.00
H2       0.64189    0.41739    0.41666   1.00
H2       0.80817    0.57502    0.44851   1.00
C4       0.51975    0.25010    0.24521   1.00
C4       0.47809    0.25137    0.24432   1.00
C3       0.54103    0.21453    0.24199   1.00
C3       0.45496    0.21782    0.23605   1.00
C3       0.54146    0.28548    0.24953   1.00
C3       0.45830    0.28733    0.25184   1.00
C2       0.60405    0.24770    0.24509   1.00
C2       0.39378    0.25346    0.24438   1.00
C3       0.58189    0.21330    0.24172   1.00
C3       0.41409    0.21871    0.23626   1.00
C3       0.58304    0.28300    0.24891   1.00
C3       0.41664    0.28695    0.25199   1.00
H1       0.52763    0.18812    0.24010   1.00
H1       0.46694    0.19156    0.22919   1.00
C5       0.52165    0.32201    0.25454   1.00
C5       0.48002    0.32243    0.25873   1.00
H1       0.59549    0.18672    0.23915   1.00
H1       0.39909    0.19347    0.23022   1.00
H1       0.59948    0.30755    0.25163   1.00
H1       0.40152    0.31188    0.25749   1.00
C6       0.54485    0.35961    0.25490   1.00
C6       0.45881    0.35929    0.27075   1.00
H2       0.56655    0.35865    0.23167   1.00
H2       0.43690    0.35200    0.29260   1.00
H2       0.52714    0.38440    0.24609   1.00
H2       0.47772    0.37894    0.28694   1.00
C6       0.56394    0.36864    0.29548   1.00
C6       0.44058    0.38192    0.23542   1.00
H2       0.57708    0.34206    0.30725   1.00
H2       0.42617    0.36130    0.21581   1.00
C6       0.59541    0.40171    0.29713   1.00
C6       0.41089    0.41535    0.24483   1.00
H2       0.54051    0.37611    0.31577   1.00
H2       0.46454    0.39432    0.21844   1.00
C6       0.63265    0.39054    0.27393   1.00
C6       0.37292    0.39924    0.26349   1.00
C6       0.57926    0.44090    0.28142   1.00
C6       0.42893    0.44646    0.27222   1.00
C6       0.60755    0.40792    0.34034   1.00
C6       0.39946    0.43581    0.20604   1.00
H2       0.64442    0.36265    0.28391   1.00
H2       0.35980    0.37672    0.24514   1.00
H2       0.62670    0.38806    0.24282   1.00
H2       0.37846    0.38653    0.29208   1.00
H2       0.65541    0.41253    0.27748   1.00
H2       0.35137    0.42235    0.26743   1.00
H2       0.60045    0.46437    0.28527   1.00
H2       0.40902    0.47099    0.27634   1.00
H2       0.57275    0.43891    0.25035   1.00
H2       0.43506    0.43420    0.30092   1.00
H2       0.55255    0.44904    0.29672   1.00
H2       0.45615    0.45770    0.26014   1.00
H2       0.61958    0.38114    0.35275   1.00
H2       0.38617    0.41515    0.18575   1.00
H2       0.62975    0.43063    0.34298   1.00
H2       0.37851    0.45928    0.21107   1.00
H2       0.58261    0.41666    0.35811   1.00
H2       0.42498    0.44851    0.19183   1.00
C4       0.98025    0.25010    0.25479   1.00
C4       1.02191    0.25137    0.25568   1.00
C3       0.95897    0.21453    0.25801   1.00
C3       1.04504    0.21782    0.26395   1.00
C3       0.95854    0.28548    0.25047   1.00
C3       1.04170    0.28733    0.24816   1.00
C2       0.89595    0.24770    0.25491   1.00
C2       1.10622    0.25346    0.25562   1.00
C3       0.91811    0.21330    0.25828   1.00
C3       1.08591    0.21871    0.26374   1.00
C3       0.91696    0.28300    0.25109   1.00
C3       1.08336    0.28695    0.24801   1.00
H1       0.97237    0.18812    0.25990   1.00
H1       1.03306    0.19156    0.27081   1.00
C5       0.97835    0.32201    0.24546   1.00
C5       1.01998    0.32243    0.24127   1.00
H1       0.90451    0.18672    0.26085   1.00
H1       1.10091    0.19347    0.26978   1.00
H1       0.90052    0.30755    0.24837   1.00
H1       1.09848    0.31188    0.24251   1.00
C6       0.95515    0.35961    0.24510   1.00
C6       1.04119    0.35929    0.22925   1.00
H2       0.93345    0.35865    0.26833   1.00
H2       1.06310    0.35200    0.20740   1.00
H2       0.97286    0.38440    0.25391   1.00
H2       1.02228    0.37894    0.21306   1.00
C6       0.93606    0.36864    0.20452   1.00
C6       1.05942    0.38192    0.26458   1.00
H2       0.92292    0.34206    0.19275   1.00
H2       1.07383    0.36130    0.28419   1.00
C6       0.90459    0.40171    0.20287   1.00
C6       1.08911    0.41535    0.25517   1.00
H2       0.95949    0.37611    0.18423   1.00
H2       1.03546    0.39432    0.28156   1.00
C6       0.86735    0.39054    0.22607   1.00
C6       1.12708    0.39924    0.23651   1.00
C6       0.92074    0.44090    0.21858   1.00
C6       1.07107    0.44646    0.22778   1.00
C6       0.89245    0.40792    0.15966   1.00
C6       1.10054    0.43581    0.29396   1.00
H2       0.85558    0.36265    0.21609   1.00
H2       1.14020    0.37672    0.25486   1.00
H2       0.87330    0.38806    0.25718   1.00
H2       1.12154    0.38653    0.20792   1.00
H2       0.84459    0.41253    0.22252   1.00
H2       1.14863    0.42235    0.23257   1.00
H2       0.89955    0.46437    0.21473   1.00
H2       1.09098    0.47099    0.22366   1.00
H2       0.92725    0.43891    0.24965   1.00
H2       1.06494    0.43420    0.19908   1.00
H2       0.94745    0.44904    0.20328   1.00
H2       1.04385    0.45770    0.23986   1.00
H2       0.88042    0.38114    0.14725   1.00
H2       1.11383    0.41515    0.31425   1.00
H2       0.87025    0.43063    0.15702   1.00
H2       1.12149    0.45928    0.28893   1.00
H2       0.91739    0.41666    0.14189   1.00
H2       1.07502    0.44851    0.30817   1.00
C4       0.74521    0.01975    0.25010   1.00
C4       0.74432    -0.02191   0.25137   1.00
C3       0.74199    0.04103    0.21453   1.00
C3       0.73605    -0.04504   0.21782   1.00
C3       0.74953    0.04146    0.28548   1.00
C3       0.75184    -0.04170   0.28733   1.00
C2       0.74509    0.10405    0.24770   1.00
C2       0.74438    -0.10622   0.25346   1.00
C3       0.74172    0.08189    0.21330   1.00
C3       0.73626    -0.08591   0.21871   1.00
C3       0.74891    0.08304    0.28300   1.00
C3       0.75199    -0.08336   0.28695   1.00
H1       0.74010    0.02763    0.18812   1.00
H1       0.72919    -0.03306   0.19156   1.00
C5       0.75454    0.02165    0.32201   1.00
C5       0.75873    -0.01998   0.32243   1.00
H1       0.73915    0.09549    0.18672   1.00
H1       0.73022    -0.10091   0.19347   1.00
H1       0.75163    0.09948    0.30755   1.00
H1       0.75749    -0.09848   0.31188   1.00
C6       0.75490    0.04485    0.35961   1.00
C6       0.77075    -0.04119   0.35929   1.00
H2       0.73167    0.06655    0.35865   1.00
H2       0.79260    -0.06310   0.35200   1.00
H2       0.74609    0.02714    0.38440   1.00
H2       0.78694    -0.02228   0.37894   1.00
C6       0.79548    0.06394    0.36864   1.00
C6       0.73542    -0.05942   0.38192   1.00
H2       0.80725    0.07708    0.34206   1.00
H2       0.71581    -0.07383   0.36130   1.00
C6       0.79713    0.09541    0.40171   1.00
C6       0.74483    -0.08911   0.41535   1.00
H2       0.81577    0.04051    0.37611   1.00
H2       0.71844    -0.03546   0.39432   1.00
C6       0.77393    0.13265    0.39054   1.00
C6       0.76349    -0.12708   0.39924   1.00
C6       0.78142    0.07926    0.44090   1.00
C6       0.77222    -0.07107   0.44646   1.00
C6       0.84034    0.10755    0.40792   1.00
C6       0.70604    -0.10054   0.43581   1.00
H2       0.78391    0.14442    0.36265   1.00
H2       0.74514    -0.14020   0.37672   1.00
H2       0.74282    0.12670    0.38806   1.00
H2       0.79208    -0.12154   0.38653   1.00
H2       0.77748    0.15541    0.41253   1.00
H2       0.76743    -0.14863   0.42235   1.00
H2       0.78527    0.10045    0.46437   1.00
H2       0.77634    -0.09098   0.47099   1.00
H2       0.75035    0.07275    0.43891   1.00
H2       0.80092    -0.06494   0.43420   1.00
H2       0.79672    0.05255    0.44904   1.00
H2       0.76014    -0.04385   0.45770   1.00
H2       0.85275    0.11958    0.38114   1.00
H2       0.68575    -0.11383   0.41515   1.00
H2       0.84298    0.12975    0.43063   1.00
H2       0.71107    -0.12149   0.45928   1.00
H2       0.85811    0.08261    0.41666   1.00
H2       0.69183    -0.07502   0.44851   1.00
C4       0.75010    0.24521    0.01975   1.00
C4       0.75137    0.24432    -0.02191   1.00
C3       0.71453    0.24199    0.04103   1.00
C3       0.71782    0.23605    -0.04504   1.00
C3       0.78548    0.24953    0.04146   1.00
C3       0.78733    0.25184    -0.04170   1.00
C2       0.74770    0.24509    0.10405   1.00
C2       0.75346    0.24438    -0.10622   1.00
C3       0.71330    0.24172    0.08189   1.00
C3       0.71871    0.23626    -0.08591   1.00
C3       0.78300    0.24891    0.08304   1.00
C3       0.78695    0.25199    -0.08336   1.00
H1       0.68812    0.24010    0.02763   1.00
H1       0.69156    0.22919    -0.03306   1.00
C5       0.82201    0.25454    0.02165   1.00
C5       0.82243    0.25873    -0.01998   1.00
H1       0.68672    0.23915    0.09549   1.00
H1       0.69347    0.23022    -0.10091   1.00
H1       0.80755    0.25163    0.09948   1.00
H1       0.81188    0.25749    -0.09848   1.00
C6       0.85961    0.25490    0.04485   1.00
C6       0.85929    0.27075    -0.04119   1.00
H2       0.85865    0.23167    0.06655   1.00
H2       0.85200    0.29260    -0.06310   1.00
H2       0.88440    0.24609    0.02714   1.00
H2       0.87894    0.28694    -0.02228   1.00
C6       0.86864    0.29548    0.06394   1.00
C6       0.88192    0.23542    -0.05942   1.00
H2       0.84206    0.30725    0.07708   1.00
H2       0.86130    0.21581    -0.07383   1.00
C6       0.90171    0.29713    0.09541   1.00
C6       0.91535    0.24483    -0.08911   1.00
H2       0.87611    0.31577    0.04051   1.00
H2       0.89432    0.21844    -0.03546   1.00
C6       0.89054    0.27393    0.13265   1.00
C6       0.89924    0.26349    -0.12708   1.00
C6       0.94090    0.28142    0.07926   1.00
C6       0.94646    0.27222    -0.07107   1.00
C6       0.90792    0.34034    0.10755   1.00
C6       0.93581    0.20604    -0.10054   1.00
H2       0.86265    0.28391    0.14442   1.00
H2       0.87672    0.24514    -0.14020   1.00
H2       0.88806    0.24282    0.12670   1.00
H2       0.88653    0.29208    -0.12154   1.00
H2       0.91253    0.27748    0.15541   1.00
H2       0.92235    0.26743    -0.14863   1.00
H2       0.96437    0.28527    0.10045   1.00
H2       0.97099    0.27634    -0.09098   1.00
H2       0.93891    0.25035    0.07275   1.00
H2       0.93420    0.30092    -0.06494   1.00
H2       0.94904    0.29672    0.05255   1.00
H2       0.95770    0.26014    -0.04385   1.00
H2       0.88114    0.35275    0.11958   1.00
H2       0.91515    0.18575    -0.11383   1.00
H2       0.93063    0.34298    0.12975   1.00
H2       0.95928    0.21107    -0.12149   1.00
H2       0.91666    0.35811    0.08261   1.00
H2       0.94851    0.19183    -0.07502   1.00
C4       1.00010    1.00479    1.23025   1.00
C4       1.00137    1.00568    1.27191   1.00
C3       0.96453    1.00801    1.20897   1.00
C3       0.96782    1.01395    1.29504   1.00
C3       1.03548    1.00047    1.20854   1.00
C3       1.03733    0.99816    1.29170   1.00
C2       0.99770    1.00491    1.14595   1.00
C2       1.00346    1.00562    1.35622   1.00
C3       0.96330    1.00828    1.16811   1.00
C3       0.96871    1.01374    1.33591   1.00
C3       1.03300    1.00109    1.16696   1.00
C3       1.03695    0.99801    1.33336   1.00
H1       0.93812    1.00990    1.22237   1.00
H1       0.94156    1.02081    1.28306   1.00
C5       1.07201    0.99546    1.22835   1.00
C5       1.07243    0.99127    1.26998   1.00
H1       0.93672    1.01085    1.15451   1.00
H1       0.94347    1.01978    1.35091   1.00
H1       1.05755    0.99837    1.15052   1.00
H1       1.06188    0.99251    1.34848   1.00
C6       1.10961    0.99510    1.20515   1.00
C6       1.10929    0.97925    1.29119   1.00
H2       1.10865    1.01833    1.18345   1.00
H2       1.10200    0.95740    1.31310   1.00
H2       1.13440    1.00391    1.22286   1.00
H2       1.12894    0.96306    1.27228   1.00
C6       1.11864    0.95452    1.18606   1.00
C6       1.13192    1.01458    1.30942   1.00
H2       1.09206    0.94275    1.17292   1.00
H2       1.11130    1.03419    1.32383   1.00
C6       1.15171    0.95287    1.15459   1.00
C6       1.16535    1.00517    1.33911   1.00
H2       1.12611    0.93423    1.20949   1.00
H2       1.14432    1.03156    1.28546   1.00
C6       1.14054    0.97607    1.11735   1.00
C6       1.14924    0.98651    1.37708   1.00
C6       1.19090    0.96858    1.17074   1.00
C6       1.19646    0.97778    1.32107   1.00
C6       1.15792    0.90966    1.14245   1.00
C6       1.18581    1.04396    1.35054   1.00
H2       1.11265    0.96609    1.10558   1.00
H2       1.12672    1.00486    1.39020   1.00
H2       1.13806    1.00718    1.12330   1.00
H2       1.13653    0.95792    1.37154   1.00
H2       1.16253    0.97252    1.09459   1.00
H2       1.17235    0.98257    1.39863   1.00
H2       1.21437    0.96473    1.14955   1.00
H2       1.22099    0.97366    1.34098   1.00
H2       1.18891    0.99965    1.17725   1.00
H2       1.18420    0.94908    1.31494   1.00
H2       1.19904    0.95328    1.19745   1.00
H2       1.20770    0.98986    1.29385   1.00
H2       1.13114    0.89725    1.13042   1.00
H2       1.16515    1.06425    1.36383   1.00
H2       1.18063    0.90702    1.12025   1.00
H2       1.20928    1.03893    1.37149   1.00
H2       1.16666    0.89189    1.16739   1.00
H2       1.19851    1.05817    1.32502   1.00
C4       1.00479    1.23025    1.00010   1.00
C4       1.00568    1.27191    1.00137   1.00
C3       1.00801    1.20897    0.96453   1.00
C3       1.01395    1.29504    0.96782   1.00
C3       1.00047    1.20854    1.03548   1.00
C3       0.99816    1.29170    1.03733   1.00
C2       1.00491    1.14595    0.99770   1.00
C2       1.00562    1.35622    1.00346   1.00
C3       1.00828    1.16811    0.96330   1.00
C3       1.01374    1.33591    0.96871   1.00
C3       1.00109    1.16696    1.03300   1.00
C3       0.99801    1.33336    1.03695   1.00
H1       1.00990    1.22237    0.93812   1.00
H1       1.02081    1.28306    0.94156   1.00
C5       0.99546    1.22835    1.07201   1.00
C5       0.99127    1.26998    1.07243   1.00
H1       1.01085    1.15451    0.93672   1.00
H1       1.01978    1.35091    0.94347   1.00
H1       0.99837    1.15052    1.05755   1.00
H1       0.99251    1.34848    1.06188   1.00
C6       0.99510    1.20515    1.10961   1.00
C6       0.97925    1.29119    1.10929   1.00
H2       1.01833    1.18345    1.10865   1.00
H2       0.95740    1.31310    1.10200   1.00
H2       1.00391    1.22286    1.13440   1.00
H2       0.96306    1.27228    1.12894   1.00
C6       0.95452    1.18606    1.11864   1.00
C6       1.01458    1.30942    1.13192   1.00
H2       0.94275    1.17292    1.09206   1.00
H2       1.03419    1.32383    1.11130   1.00
C6       0.95287    1.15459    1.15171   1.00
C6       1.00517    1.33911    1.16535   1.00
H2       0.93423    1.20949    1.12611   1.00
H2       1.03156    1.28546    1.14432   1.00
C6       0.97607    1.11735    1.14054   1.00
C6       0.98651    1.37708    1.14924   1.00
C6       0.96858    1.17074    1.19090   1.00
C6       0.97778    1.32107    1.19646   1.00
C6       0.90966    1.14245    1.15792   1.00
C6       1.04396    1.35054    1.18581   1.00
H2       0.96609    1.10558    1.11265   1.00
H2       1.00486    1.39020    1.12672   1.00
H2       1.00718    1.12330    1.13806   1.00
H2       0.95792    1.37154    1.13653   1.00
H2       0.97252    1.09459    1.16253   1.00
H2       0.98257    1.39863    1.17235   1.00
H2       0.96473    1.14955    1.21437   1.00
H2       0.97366    1.34098    1.22099   1.00
H2       0.99965    1.17725    1.18891   1.00
H2       0.94908    1.31494    1.18420   1.00
H2       0.95328    1.19745    1.19904   1.00
H2       0.98986    1.29385    1.20770   1.00
H2       0.89725    1.13042    1.13114   1.00
H2       1.06425    1.36383    1.16515   1.00
H2       0.90702    1.12025    1.18063   1.00
H2       1.03893    1.37149    1.20928   1.00
H2       0.89189    1.16739    1.16666   1.00
H2       1.05817    1.32502    1.19851   1.00
C4       0.76975    1.00010    0.99521   1.00
C4       0.72809    1.00137    0.99432   1.00
C3       0.79103    0.96453    0.99199   1.00
C3       0.70496    0.96782    0.98605   1.00
C3       0.79146    1.03548    0.99953   1.00
C3       0.70830    1.03733    1.00184   1.00
C2       0.85405    0.99770    0.99509   1.00
C2       0.64378    1.00346    0.99438   1.00
C3       0.83189    0.96330    0.99172   1.00
C3       0.66409    0.96871    0.98626   1.00
C3       0.83304    1.03300    0.99891   1.00
C3       0.66664    1.03695    1.00199   1.00
H1       0.77763    0.93812    0.99010   1.00
H1       0.71694    0.94156    0.97919   1.00
C5       0.77165    1.07201    1.00454   1.00
C5       0.73002    1.07243    1.00873   1.00
H1       0.84549    0.93672    0.98915   1.00
H1       0.64909    0.94347    0.98022   1.00
H1       0.84948    1.05755    1.00163   1.00
H1       0.65152    1.06188    1.00749   1.00
C6       0.79485    1.10961    1.00490   1.00
C6       0.70881    1.10929    1.02075   1.00
H2       0.81655    1.10865    0.98167   1.00
H2       0.68690    1.10200    1.04260   1.00
H2       0.77714    1.13440    0.99609   1.00
H2       0.72772    1.12894    1.03694   1.00
C6       0.81394    1.11864    1.04548   1.00
C6       0.69058    1.13192    0.98542   1.00
H2       0.82708    1.09206    1.05725   1.00
H2       0.67617    1.11130    0.96581   1.00
C6       0.84541    1.15171    1.04713   1.00
C6       0.66089    1.16535    0.99483   1.00
H2       0.79051    1.12611    1.06577   1.00
H2       0.71454    1.14432    0.96844   1.00
C6       0.88265    1.14054    1.02393   1.00
C6       0.62292    1.14924    1.01349   1.00
C6       0.82926    1.19090    1.03142   1.00
C6       0.67893    1.19646    1.02222   1.00
C6       0.85755    1.15792    1.09034   1.00
C6       0.64946    1.18581    0.95604   1.00
H2       0.89442    1.11265    1.03391   1.00
H2       0.60980    1.12672    0.99514   1.00
H2       0.87670    1.13806    0.99282   1.00
H2       0.62846    1.13653    1.04208   1.00
H2       0.90541    1.16253    1.02748   1.00
H2       0.60137    1.17235    1.01743   1.00
H2       0.85045    1.21437    1.03527   1.00
H2       0.65902    1.22099    1.02634   1.00
H2       0.82275    1.18891    1.00035   1.00
H2       0.68506    1.18420    1.05092   1.00
H2       0.80255    1.19904    1.04672   1.00
H2       0.70615    1.20770    1.01014   1.00
H2       0.86958    1.13114    1.10275   1.00
H2       0.63617    1.16515    0.93575   1.00
H2       0.87975    1.18063    1.09298   1.00
H2       0.62851    1.20928    0.96107   1.00
H2       0.83261    1.16666    1.10811   1.00
H2       0.67498    1.19851    0.94183   1.00
C4       1.23025    1.00010    1.00479   1.00
C4       1.27191    1.00137    1.00568   1.00
C3       1.20897    0.96453    1.00801   1.00
C3       1.29504    0.96782    1.01395   1.00
C3       1.20854    1.03548    1.00047   1.00
C3       1.29170    1.03733    0.99816   1.00
C2       1.14595    0.99770    1.00491   1.00
C2       1.35622    1.00346    1.00562   1.00
C3       1.16811    0.96330    1.00828   1.00
C3       1.33591    0.96871    1.01374   1.00
C3       1.16696    1.03300    1.00109   1.00
C3       1.33336    1.03695    0.99801   1.00
H1       1.22237    0.93812    1.00990   1.00
H1       1.28306    0.94156    1.02081   1.00
C5       1.22835    1.07201    0.99546   1.00
C5       1.26998    1.07243    0.99127   1.00
H1       1.15451    0.93672    1.01085   1.00
H1       1.35091    0.94347    1.01978   1.00
H1       1.15052    1.05755    0.99837   1.00
H1       1.34848    1.06188    0.99251   1.00
C6       1.20515    1.10961    0.99510   1.00
C6       1.29119    1.10929    0.97925   1.00
H2       1.18345    1.10865    1.01833   1.00
H2       1.31310    1.10200    0.95740   1.00
H2       1.22286    1.13440    1.00391   1.00
H2       1.27228    1.12894    0.96306   1.00
C6       1.18606    1.11864    0.95452   1.00
C6       1.30942    1.13192    1.01458   1.00
H2       1.17292    1.09206    0.94275   1.00
H2       1.32383    1.11130    1.03419   1.00
C6       1.15459    1.15171    0.95287   1.00
C6       1.33911    1.16535    1.00517   1.00
H2       1.20949    1.12611    0.93423   1.00
H2       1.28546    1.14432    1.03156   1.00
C6       1.11735    1.14054    0.97607   1.00
C6       1.37708    1.14924    0.98651   1.00
C6       1.17074    1.19090    0.96858   1.00
C6       1.32107    1.19646    0.97778   1.00
C6       1.14245    1.15792    0.90966   1.00
C6       1.35054    1.18581    1.04396   1.00
H2       1.10558    1.11265    0.96609   1.00
H2       1.39020    1.12672    1.00486   1.00
H2       1.12330    1.13806    1.00718   1.00
H2       1.37154    1.13653    0.95792   1.00
H2       1.09459    1.16253    0.97252   1.00
H2       1.39863    1.17235    0.98257   1.00
H2       1.14955    1.21437    0.96473   1.00
H2       1.34098    1.22099    0.97366   1.00
H2       1.17725    1.18891    0.99965   1.00
H2       1.31494    1.18420    0.94908   1.00
H2       1.19745    1.19904    0.95328   1.00
H2       1.29385    1.20770    0.98986   1.00
H2       1.13042    1.13114    0.89725   1.00
H2       1.36383    1.16515    1.06425   1.00
H2       1.12025    1.18063    0.90702   1.00
H2       1.37149    1.20928    1.03893   1.00
H2       1.16739    1.16666    0.89189   1.00
H2       1.32502    1.19851    1.05817   1.00
C4       0.99521    0.76975    1.00010   1.00
C4       0.99432    0.72809    1.00137   1.00
C3       0.99199    0.79103    0.96453   1.00
C3       0.98605    0.70496    0.96782   1.00
C3       0.99953    0.79146    1.03548   1.00
C3       1.00184    0.70830    1.03733   1.00
C2       0.99509    0.85405    0.99770   1.00
C2       0.99438    0.64378    1.00346   1.00
C3       0.99172    0.83189    0.96330   1.00
C3       0.98626    0.66409    0.96871   1.00
C3       0.99891    0.83304    1.03300   1.00
C3       1.00199    0.66664    1.03695   1.00
H1       0.99010    0.77763    0.93812   1.00
H1       0.97919    0.71694    0.94156   1.00
C5       1.00454    0.77165    1.07201   1.00
C5       1.00873    0.73002    1.07243   1.00
H1       0.98915    0.84549    0.93672   1.00
H1       0.98022    0.64909    0.94347   1.00
H1       1.00163    0.84948    1.05755   1.00
H1       1.00749    0.65152    1.06188   1.00
C6       1.00490    0.79485    1.10961   1.00
C6       1.02075    0.70881    1.10929   1.00
H2       0.98167    0.81655    1.10865   1.00
H2       1.04260    0.68690    1.10200   1.00
H2       0.99609    0.77714    1.13440   1.00
H2       1.03694    0.72772    1.12894   1.00
C6       1.04548    0.81394    1.11864   1.00
C6       0.98542    0.69058    1.13192   1.00
H2       1.05725    0.82708    1.09206   1.00
H2       0.96581    0.67617    1.11130   1.00
C6       1.04713    0.84541    1.15171   1.00
C6       0.99483    0.66089    1.16535   1.00
H2       1.06577    0.79051    1.12611   1.00
H2       0.96844    0.71454    1.14432   1.00
C6       1.02393    0.88265    1.14054   1.00
C6       1.01349    0.62292    1.14924   1.00
C6       1.03142    0.82926    1.19090   1.00
C6       1.02222    0.67893    1.19646   1.00
C6       1.09034    0.85755    1.15792   1.00
C6       0.95604    0.64946    1.18581   1.00
H2       1.03391    0.89442    1.11265   1.00
H2       0.99514    0.60980    1.12672   1.00
H2       0.99282    0.87670    1.13806   1.00
H2       1.04208    0.62846    1.13653   1.00
H2       1.02748    0.90541    1.16253   1.00
H2       1.01743    0.60137    1.17235   1.00
H2       1.03527    0.85045    1.21437   1.00
H2       1.02634    0.65902    1.22099   1.00
H2       1.00035    0.82275    1.18891   1.00
H2       1.05092    0.68506    1.18420   1.00
H2       1.04672    0.80255    1.19904   1.00
H2       1.01014    0.70615    1.20770   1.00
H2       1.10275    0.86958    1.13114   1.00
H2       0.93575    0.63617    1.16515   1.00
H2       1.09298    0.87975    1.18063   1.00
H2       0.96107    0.62851    1.20928   1.00
H2       1.10811    0.83261    1.16666   1.00
H2       0.94183    0.67498    1.19851   1.00
C4       1.00010    0.99521    0.76975   1.00
C4       1.00137    0.99432    0.72809   1.00
C3       0.96453    0.99199    0.79103   1.00
C3       0.96782    0.98605    0.70496   1.00
C3       1.03548    0.99953    0.79146   1.00
C3       1.03733    1.00184    0.70830   1.00
C2       0.99770    0.99509    0.85405   1.00
C2       1.00346    0.99438    0.64378   1.00
C3       0.96330    0.99172    0.83189   1.00
C3       0.96871    0.98626    0.66409   1.00
C3       1.03300    0.99891    0.83304   1.00
C3       1.03695    1.00199    0.66664   1.00
H1       0.93812    0.99010    0.77763   1.00
H1       0.94156    0.97919    0.71694   1.00
C5       1.07201    1.00454    0.77165   1.00
C5       1.07243    1.00873    0.73002   1.00
H1       0.93672    0.98915    0.84549   1.00
H1       0.94347    0.98022    0.64909   1.00
H1       1.05755    1.00163    0.84948   1.00
H1       1.06188    1.00749    0.65152   1.00
C6       1.10961    1.00490    0.79485   1.00
C6       1.10929    1.02075    0.70881   1.00
H2       1.10865    0.98167    0.81655   1.00
H2       1.10200    1.04260    0.68690   1.00
H2       1.13440    0.99609    0.77714   1.00
H2       1.12894    1.03694    0.72772   1.00
C6       1.11864    1.04548    0.81394   1.00
C6       1.13192    0.98542    0.69058   1.00
H2       1.09206    1.05725    0.82708   1.00
H2       1.11130    0.96581    0.67617   1.00
C6       1.15171    1.04713    0.84541   1.00
C6       1.16535    0.99483    0.66089   1.00
H2       1.12611    1.06577    0.79051   1.00
H2       1.14432    0.96844    0.71454   1.00
C6       1.14054    1.02393    0.88265   1.00
C6       1.14924    1.01349    0.62292   1.00
C6       1.19090    1.03142    0.82926   1.00
C6       1.19646    1.02222    0.67893   1.00
C6       1.15792    1.09034    0.85755   1.00
C6       1.18581    0.95604    0.64946   1.00
H2       1.11265    1.03391    0.89442   1.00
H2       1.12672    0.99514    0.60980   1.00
H2       1.13806    0.99282    0.87670   1.00
H2       1.13653    1.04208    0.62846   1.00
H2       1.16253    1.02748    0.90541   1.00
H2       1.17235    1.01743    0.60137   1.00
H2       1.21437    1.03527    0.85045   1.00
H2       1.22099    1.02634    0.65902   1.00
H2       1.18891    1.00035    0.82275   1.00
H2       1.18420    1.05092    0.68506   1.00
H2       1.19904    1.04672    0.80255   1.00
H2       1.20770    1.01014    0.70615   1.00
H2       1.13114    1.10275    0.86958   1.00
H2       1.16515    0.93575    0.63617   1.00
H2       1.18063    1.09298    0.87975   1.00
H2       1.20928    0.96107    0.62851   1.00
H2       1.16666    1.10811    0.83261   1.00
H2       1.19851    0.94183    0.67498   1.00
C4       0.50010    0.50479    1.23025   1.00
C4       0.50137    0.50568    1.27191   1.00
C3       0.46453    0.50801    1.20897   1.00
C3       0.46782    0.51395    1.29504   1.00
C3       0.53548    0.50047    1.20854   1.00
C3       0.53733    0.49816    1.29170   1.00
C2       0.49770    0.50491    1.14595   1.00
C2       0.50346    0.50562    1.35622   1.00
C3       0.46330    0.50828    1.16811   1.00
C3       0.46871    0.51374    1.33591   1.00
C3       0.53300    0.50109    1.16696   1.00
C3       0.53695    0.49801    1.33336   1.00
H1       0.43812    0.50990    1.22237   1.00
H1       0.44156    0.52081    1.28306   1.00
C5       0.57201    0.49546    1.22835   1.00
C5       0.57243    0.49127    1.26998   1.00
H1       0.43672    0.51085    1.15451   1.00
H1       0.44347    0.51978    1.35091   1.00
H1       0.55755    0.49837    1.15052   1.00
H1       0.56188    0.49251    1.34848   1.00
C6       0.60961    0.49510    1.20515   1.00
C6       0.60929    0.47925    1.29119   1.00
H2       0.60865    0.51833    1.18345   1.00
H2       0.60200    0.45740    1.31310   1.00
H2       0.63440    0.50391    1.22286   1.00
H2       0.62894    0.46306    1.27228   1.00
C6       0.61864    0.45452    1.18606   1.00
C6       0.63192    0.51458    1.30942   1.00
H2       0.59206    0.44275    1.17292   1.00
H2       0.61130    0.53419    1.32383   1.00
C6       0.65171    0.45287    1.15459   1.00
C6       0.66535    0.50517    1.33911   1.00
H2       0.62611    0.43423    1.20949   1.00
H2       0.64432    0.53156    1.28546   1.00
C6       0.64054    0.47607    1.11735   1.00
C6       0.64924    0.48651    1.37708   1.00
C6       0.69090    0.46858    1.17074   1.00
C6       0.69646    0.47778    1.32107   1.00
C6       0.65792    0.40966    1.14245   1.00
C6       0.68581    0.54396    1.35054   1.00
H2       0.61265    0.46609    1.10558   1.00
H2       0.62672    0.50486    1.39020   1.00
H2       0.63806    0.50718    1.12330   1.00
H2       0.63653    0.45792    1.37154   1.00
H2       0.66253    0.47252    1.09459   1.00
H2       0.67235    0.48257    1.39863   1.00
H2       0.71437    0.46473    1.14955   1.00
H2       0.72099    0.47366    1.34098   1.00
H2       0.68891    0.49965    1.17725   1.00
H2       0.68420    0.44908    1.31494   1.00
H2       0.69904    0.45328    1.19745   1.00
H2       0.70770    0.48986    1.29385   1.00
H2       0.63114    0.39725    1.13042   1.00
H2       0.66515    0.56425    1.36383   1.00
H2       0.68063    0.40702    1.12025   1.00
H2       0.70928    0.53893    1.37149   1.00
H2       0.66666    0.39189    1.16739   1.00
H2       0.69851    0.55817    1.32502   1.00
C4       0.50479    0.73025    1.00010   1.00
C4       0.50568    0.77191    1.00137   1.00
C3       0.50801    0.70897    0.96453   1.00
C3       0.51395    0.79504    0.96782   1.00
C3       0.50047    0.70854    1.03548   1.00
C3       0.49816    0.79170    1.03733   1.00
C2       0.50491    0.64595    0.99770   1.00
C2       0.50562    0.85622    1.00346   1.00
C3       0.50828    0.66811    0.96330   1.00
C3       0.51374    0.83591    0.96871   1.00
C3       0.50109    0.66696    1.03300   1.00
C3       0.49801    0.83336    1.03695   1.00
H1       0.50990    0.72237    0.93812   1.00
H1       0.52081    0.78306    0.94156   1.00
C5       0.49546    0.72835    1.07201   1.00
C5       0.49127    0.76998    1.07243   1.00
H1       0.51085    0.65451    0.93672   1.00
H1       0.51978    0.85091    0.94347   1.00
H1       0.49837    0.65052    1.05755   1.00
H1       0.49251    0.84848    1.06188   1.00
C6       0.49510    0.70515    1.10961   1.00
C6       0.47925    0.79119    1.10929   1.00
H2       0.51833    0.68345    1.10865   1.00
H2       0.45740    0.81310    1.10200   1.00
H2       0.50391    0.72286    1.13440   1.00
H2       0.46306    0.77228    1.12894   1.00
C6       0.45452    0.68606    1.11864   1.00
C6       0.51458    0.80942    1.13192   1.00
H2       0.44275    0.67292    1.09206   1.00
H2       0.53419    0.82383    1.11130   1.00
C6       0.45287    0.65459    1.15171   1.00
C6       0.50517    0.83911    1.16535   1.00
H2       0.43423    0.70949    1.12611   1.00
H2       0.53156    0.78546    1.14432   1.00
C6       0.47607    0.61735    1.14054   1.00
C6       0.48651    0.87708    1.14924   1.00
C6       0.46858    0.67074    1.19090   1.00
C6       0.47778    0.82107    1.19646   1.00
C6       0.40966    0.64245    1.15792   1.00
C6       0.54396    0.85054    1.18581   1.00
H2       0.46609    0.60558    1.11265   1.00
H2       0.50486    0.89020    1.12672   1.00
H2       0.50718    0.62330    1.13806   1.00
H2       0.45792    0.87154    1.13653   1.00
H2       0.47252    0.59459    1.16253   1.00
H2       0.48257    0.89863    1.17235   1.00
H2       0.46473    0.64955    1.21437   1.00
H2       0.47366    0.84098    1.22099   1.00
H2       0.49965    0.67725    1.18891   1.00
H2       0.44908    0.81494    1.18420   1.00
H2       0.45328    0.69745    1.19904   1.00
H2       0.48986    0.79385    1.20770   1.00
H2       0.39725    0.63042    1.13114   1.00
H2       0.56425    0.86383    1.16515   1.00
H2       0.40702    0.62025    1.18063   1.00
H2       0.53893    0.87149    1.20928   1.00
H2       0.39189    0.66739    1.16666   1.00
H2       0.55817    0.82502    1.19851   1.00
C4       0.26975    0.50010    0.99521   1.00
C4       0.22809    0.50137    0.99432   1.00
C3       0.29103    0.46453    0.99199   1.00
C3       0.20496    0.46782    0.98605   1.00
C3       0.29146    0.53548    0.99953   1.00
C3       0.20830    0.53733    1.00184   1.00
C2       0.35405    0.49770    0.99509   1.00
C2       0.14378    0.50346    0.99438   1.00
C3       0.33189    0.46330    0.99172   1.00
C3       0.16409    0.46871    0.98626   1.00
C3       0.33304    0.53300    0.99891   1.00
C3       0.16664    0.53695    1.00199   1.00
H1       0.27763    0.43812    0.99010   1.00
H1       0.21694    0.44156    0.97919   1.00
C5       0.27165    0.57201    1.00454   1.00
C5       0.23002    0.57243    1.00873   1.00
H1       0.34549    0.43672    0.98915   1.00
H1       0.14909    0.44347    0.98022   1.00
H1       0.34948    0.55755    1.00163   1.00
H1       0.15152    0.56188    1.00749   1.00
C6       0.29485    0.60961    1.00490   1.00
C6       0.20881    0.60929    1.02075   1.00
H2       0.31655    0.60865    0.98167   1.00
H2       0.18690    0.60200    1.04260   1.00
H2       0.27714    0.63440    0.99609   1.00
H2       0.22772    0.62894    1.03694   1.00
C6       0.31394    0.61864    1.04548   1.00
C6       0.19058    0.63192    0.98542   1.00
H2       0.32708    0.59206    1.05725   1.00
H2       0.17617    0.61130    0.96581   1.00
C6       0.34541    0.65171    1.04713   1.00
C6       0.16089    0.66535    0.99483   1.00
H2       0.29051    0.62611    1.06577   1.00
H2       0.21454    0.64432    0.96844   1.00
C6       0.38265    0.64054    1.02393   1.00
C6       0.12292    0.64924    1.01349   1.00
C6       0.32926    0.69090    1.03142   1.00
C6       0.17893    0.69646    1.02222   1.00
C6       0.35755    0.65792    1.09034   1.00
C6       0.14946    0.68581    0.95604   1.00
H2       0.39442    0.61265    1.03391   1.00
H2       0.10980    0.62672    0.99514   1.00
H2       0.37670    0.63806    0.99282   1.00
H2       0.12846    0.63653    1.04208   1.00
H2       0.40541    0.66253    1.02748   1.00
H2       0.10137    0.67235    1.01743   1.00
H2       0.35045    0.71437    1.03527   1.00
H2       0.15902    0.72099    1.02634   1.00
H2       0.32275    0.68891    1.00035   1.00
H2       0.18506    0.68420    1.05092   1.00
H2       0.30255    0.69904    1.04672   1.00
H2       0.20615    0.70770    1.01014   1.00
H2       0.36958    0.63114    1.10275   1.00
H2       0.13617    0.66515    0.93575   1.00
H2       0.37975    0.68063    1.09298   1.00
H2       0.12851    0.70928    0.96107   1.00
H2       0.33261    0.66666    1.10811   1.00
H2       0.17498    0.69851    0.94183   1.00
C4       0.73025    0.50010    1.00479   1.00
C4       0.77191    0.50137    1.00568   1.00
C3       0.70897    0.46453    1.00801   1.00
C3       0.79504    0.46782    1.01395   1.00
C3       0.70854    0.53548    1.00047   1.00
C3       0.79170    0.53733    0.99816   1.00
C2       0.64595    0.49770    1.00491   1.00
C2       0.85622    0.50346    1.00562   1.00
C3       0.66811    0.46330    1.00828   1.00
C3       0.83591    0.46871    1.01374   1.00
C3       0.66696    0.53300    1.00109   1.00
C3       0.83336    0.53695    0.99801   1.00
H1       0.72237    0.43812    1.00990   1.00
H1       0.78306    0.44156    1.02081   1.00
C5       0.72835    0.57201    0.99546   1.00
C5       0.76998    0.57243    0.99127   1.00
H1       0.65451    0.43672    1.01085   1.00
H1       0.85091    0.44347    1.01978   1.00
H1       0.65052    0.55755    0.99837   1.00
H1       0.84848    0.56188    0.99251   1.00
C6       0.70515    0.60961    0.99510   1.00
C6       0.79119    0.60929    0.97925   1.00
H2       0.68345    0.60865    1.01833   1.00
H2       0.81310    0.60200    0.95740   1.00
H2       0.72286    0.63440    1.00391   1.00
H2       0.77228    0.62894    0.96306   1.00
C6       0.68606    0.61864    0.95452   1.00
C6       0.80942    0.63192    1.01458   1.00
H2       0.67292    0.59206    0.94275   1.00
H2       0.82383    0.61130    1.03419   1.00
C6       0.65459    0.65171    0.95287   1.00
C6       0.83911    0.66535    1.00517   1.00
H2       0.70949    0.62611    0.93423   1.00
H2       0.78546    0.64432    1.03156   1.00
C6       0.61735    0.64054    0.97607   1.00
C6       0.87708    0.64924    0.98651   1.00
C6       0.67074    0.69090    0.96858   1.00
C6       0.82107    0.69646    0.97778   1.00
C6       0.64245    0.65792    0.90966   1.00
C6       0.85054    0.68581    1.04396   1.00
H2       0.60558    0.61265    0.96609   1.00
H2       0.89020    0.62672    1.00486   1.00
H2       0.62330    0.63806    1.00718   1.00
H2       0.87154    0.63653    0.95792   1.00
H2       0.59459    0.66253    0.97252   1.00
H2       0.89863    0.67235    0.98257   1.00
H2       0.64955    0.71437    0.96473   1.00
H2       0.84098    0.72099    0.97366   1.00
H2       0.67725    0.68891    0.99965   1.00
H2       0.81494    0.68420    0.94908   1.00
H2       0.69745    0.69904    0.95328   1.00
H2       0.79385    0.70770    0.98986   1.00
H2       0.63042    0.63114    0.89725   1.00
H2       0.86383    0.66515    1.06425   1.00
H2       0.62025    0.68063    0.90702   1.00
H2       0.87149    0.70928    1.03893   1.00
H2       0.66739    0.66666    0.89189   1.00
H2       0.82502    0.69851    1.05817   1.00
C4       0.49521    0.26975    1.00010   1.00
C4       0.49432    0.22809    1.00137   1.00
C3       0.49199    0.29103    0.96453   1.00
C3       0.48605    0.20496    0.96782   1.00
C3       0.49953    0.29146    1.03548   1.00
C3       0.50184    0.20830    1.03733   1.00
C2       0.49509    0.35405    0.99770   1.00
C2       0.49438    0.14378    1.00346   1.00
C3       0.49172    0.33189    0.96330   1.00
C3       0.48626    0.16409    0.96871   1.00
C3       0.49891    0.33304    1.03300   1.00
C3       0.50199    0.16664    1.03695   1.00
H1       0.49010    0.27763    0.93812   1.00
H1       0.47919    0.21694    0.94156   1.00
C5       0.50454    0.27165    1.07201   1.00
C5       0.50873    0.23002    1.07243   1.00
H1       0.48915    0.34549    0.93672   1.00
H1       0.48022    0.14909    0.94347   1.00
H1       0.50163    0.34948    1.05755   1.00
H1       0.50749    0.15152    1.06188   1.00
C6       0.50490    0.29485    1.10961   1.00
C6       0.52075    0.20881    1.10929   1.00
H2       0.48167    0.31655    1.10865   1.00
H2       0.54260    0.18690    1.10200   1.00
H2       0.49609    0.27714    1.13440   1.00
H2       0.53694    0.22772    1.12894   1.00
C6       0.54548    0.31394    1.11864   1.00
C6       0.48542    0.19058    1.13192   1.00
H2       0.55725    0.32708    1.09206   1.00
H2       0.46581    0.17617    1.11130   1.00
C6       0.54713    0.34541    1.15171   1.00
C6       0.49483    0.16089    1.16535   1.00
H2       0.56577    0.29051    1.12611   1.00
H2       0.46844    0.21454    1.14432   1.00
C6       0.52393    0.38265    1.14054   1.00
C6       0.51349    0.12292    1.14924   1.00
C6       0.53142    0.32926    1.19090   1.00
C6       0.52222    0.17893    1.19646   1.00
C6       0.59034    0.35755    1.15792   1.00
C6       0.45604    0.14946    1.18581   1.00
H2       0.53391    0.39442    1.11265   1.00
H2       0.49514    0.10980    1.12672   1.00
H2       0.49282    0.37670    1.13806   1.00
H2       0.54208    0.12846    1.13653   1.00
H2       0.52748    0.40541    1.16253   1.00
H2       0.51743    0.10137    1.17235   1.00
H2       0.53527    0.35045    1.21437   1.00
H2       0.52634    0.15902    1.22099   1.00
H2       0.50035    0.32275    1.18891   1.00
H2       0.55092    0.18506    1.18420   1.00
H2       0.54672    0.30255    1.19904   1.00
H2       0.51014    0.20615    1.20770   1.00
H2       0.60275    0.36958    1.13114   1.00
H2       0.43575    0.13617    1.16515   1.00
H2       0.59298    0.37975    1.18063   1.00
H2       0.46107    0.12851    1.20928   1.00
H2       0.60811    0.33261    1.16666   1.00
H2       0.44183    0.17498    1.19851   1.00
C4       0.50010    0.49521    0.76975   1.00
C4       0.50137    0.49432    0.72809   1.00
C3       0.46453    0.49199    0.79103   1.00
C3       0.46782    0.48605    0.70496   1.00
C3       0.53548    0.49953    0.79146   1.00
C3       0.53733    0.50184    0.70830   1.00
C2       0.49770    0.49509    0.85405   1.00
C2       0.50346    0.49438    0.64378   1.00
C3       0.46330    0.49172    0.83189   1.00
C3       0.46871    0.48626    0.66409   1.00
C3       0.53300    0.49891    0.83304   1.00
C3       0.53695    0.50199    0.66664   1.00
H1       0.43812    0.49010    0.77763   1.00
H1       0.44156    0.47919    0.71694   1.00
C5       0.57201    0.50454    0.77165   1.00
C5       0.57243    0.50873    0.73002   1.00
H1       0.43672    0.48915    0.84549   1.00
H1       0.44347    0.48022    0.64909   1.00
H1       0.55755    0.50163    0.84948   1.00
H1       0.56188    0.50749    0.65152   1.00
C6       0.60961    0.50490    0.79485   1.00
C6       0.60929    0.52075    0.70881   1.00
H2       0.60865    0.48167    0.81655   1.00
H2       0.60200    0.54260    0.68690   1.00
H2       0.63440    0.49609    0.77714   1.00
H2       0.62894    0.53694    0.72772   1.00
C6       0.61864    0.54548    0.81394   1.00
C6       0.63192    0.48542    0.69058   1.00
H2       0.59206    0.55725    0.82708   1.00
H2       0.61130    0.46581    0.67617   1.00
C6       0.65171    0.54713    0.84541   1.00
C6       0.66535    0.49483    0.66089   1.00
H2       0.62611    0.56577    0.79051   1.00
H2       0.64432    0.46844    0.71454   1.00
C6       0.64054    0.52393    0.88265   1.00
C6       0.64924    0.51349    0.62292   1.00
C6       0.69090    0.53142    0.82926   1.00
C6       0.69646    0.52222    0.67893   1.00
C6       0.65792    0.59034    0.85755   1.00
C6       0.68581    0.45604    0.64946   1.00
H2       0.61265    0.53391    0.89442   1.00
H2       0.62672    0.49514    0.60980   1.00
H2       0.63806    0.49282    0.87670   1.00
H2       0.63653    0.54208    0.62846   1.00
H2       0.66253    0.52748    0.90541   1.00
H2       0.67235    0.51743    0.60137   1.00
H2       0.71437    0.53527    0.85045   1.00
H2       0.72099    0.52634    0.65902   1.00
H2       0.68891    0.50035    0.82275   1.00
H2       0.68420    0.55092    0.68506   1.00
H2       0.69904    0.54672    0.80255   1.00
H2       0.70770    0.51014    0.70615   1.00
H2       0.63114    0.60275    0.86958   1.00
H2       0.66515    0.43575    0.63617   1.00
H2       0.68063    0.59298    0.87975   1.00
H2       0.70928    0.46107    0.62851   1.00
H2       0.66666    0.60811    0.83261   1.00
H2       0.69851    0.44183    0.67498   1.00
C4       0.50010    1.00479    0.73025   1.00
C4       0.50137    1.00568    0.77191   1.00
C3       0.46453    1.00801    0.70897   1.00
C3       0.46782    1.01395    0.79504   1.00
C3       0.53548    1.00047    0.70854   1.00
C3       0.53733    0.99816    0.79170   1.00
C2       0.49770    1.00491    0.64595   1.00
C2       0.50346    1.00562    0.85622   1.00
C3       0.46330    1.00828    0.66811   1.00
C3       0.46871    1.01374    0.83591   1.00
C3       0.53300    1.00109    0.66696   1.00
C3       0.53695    0.99801    0.83336   1.00
H1       0.43812    1.00990    0.72237   1.00
H1       0.44156    1.02081    0.78306   1.00
C5       0.57201    0.99546    0.72835   1.00
C5       0.57243    0.99127    0.76998   1.00
H1       0.43672    1.01085    0.65451   1.00
H1       0.44347    1.01978    0.85091   1.00
H1       0.55755    0.99837    0.65052   1.00
H1       0.56188    0.99251    0.84848   1.00
C6       0.60961    0.99510    0.70515   1.00
C6       0.60929    0.97925    0.79119   1.00
H2       0.60865    1.01833    0.68345   1.00
H2       0.60200    0.95740    0.81310   1.00
H2       0.63440    1.00391    0.72286   1.00
H2       0.62894    0.96306    0.77228   1.00
C6       0.61864    0.95452    0.68606   1.00
C6       0.63192    1.01458    0.80942   1.00
H2       0.59206    0.94275    0.67292   1.00
H2       0.61130    1.03419    0.82383   1.00
C6       0.65171    0.95287    0.65459   1.00
C6       0.66535    1.00517    0.83911   1.00
H2       0.62611    0.93423    0.70949   1.00
H2       0.64432    1.03156    0.78546   1.00
C6       0.64054    0.97607    0.61735   1.00
C6       0.64924    0.98651    0.87708   1.00
C6       0.69090    0.96858    0.67074   1.00
C6       0.69646    0.97778    0.82107   1.00
C6       0.65792    0.90966    0.64245   1.00
C6       0.68581    1.04396    0.85054   1.00
H2       0.61265    0.96609    0.60558   1.00
H2       0.62672    1.00486    0.89020   1.00
H2       0.63806    1.00718    0.62330   1.00
H2       0.63653    0.95792    0.87154   1.00
H2       0.66253    0.97252    0.59459   1.00
H2       0.67235    0.98257    0.89863   1.00
H2       0.71437    0.96473    0.64955   1.00
H2       0.72099    0.97366    0.84098   1.00
H2       0.68891    0.99965    0.67725   1.00
H2       0.68420    0.94908    0.81494   1.00
H2       0.69904    0.95328    0.69745   1.00
H2       0.70770    0.98986    0.79385   1.00
H2       0.63114    0.89725    0.63042   1.00
H2       0.66515    1.06425    0.86383   1.00
H2       0.68063    0.90702    0.62025   1.00
H2       0.70928    1.03893    0.87149   1.00
H2       0.66666    0.89189    0.66739   1.00
H2       0.69851    1.05817    0.82502   1.00
C4       0.50479    1.23025    0.50010   1.00
C4       0.50568    1.27191    0.50137   1.00
C3       0.50801    1.20897    0.46453   1.00
C3       0.51395    1.29504    0.46782   1.00
C3       0.50047    1.20854    0.53548   1.00
C3       0.49816    1.29170    0.53733   1.00
C2       0.50491    1.14595    0.49770   1.00
C2       0.50562    1.35622    0.50346   1.00
C3       0.50828    1.16811    0.46330   1.00
C3       0.51374    1.33591    0.46871   1.00
C3       0.50109    1.16696    0.53300   1.00
C3       0.49801    1.33336    0.53695   1.00
H1       0.50990    1.22237    0.43812   1.00
H1       0.52081    1.28306    0.44156   1.00
C5       0.49546    1.22835    0.57201   1.00
C5       0.49127    1.26998    0.57243   1.00
H1       0.51085    1.15451    0.43672   1.00
H1       0.51978    1.35091    0.44347   1.00
H1       0.49837    1.15052    0.55755   1.00
H1       0.49251    1.34848    0.56188   1.00
C6       0.49510    1.20515    0.60961   1.00
C6       0.47925    1.29119    0.60929   1.00
H2       0.51833    1.18345    0.60865   1.00
H2       0.45740    1.31310    0.60200   1.00
H2       0.50391    1.22286    0.63440   1.00
H2       0.46306    1.27228    0.62894   1.00
C6       0.45452    1.18606    0.61864   1.00
C6       0.51458    1.30942    0.63192   1.00
H2       0.44275    1.17292    0.59206   1.00
H2       0.53419    1.32383    0.61130   1.00
C6       0.45287    1.15459    0.65171   1.00
C6       0.50517    1.33911    0.66535   1.00
H2       0.43423    1.20949    0.62611   1.00
H2       0.53156    1.28546    0.64432   1.00
C6       0.47607    1.11735    0.64054   1.00
C6       0.48651    1.37708    0.64924   1.00
C6       0.46858    1.17074    0.69090   1.00
C6       0.47778    1.32107    0.69646   1.00
C6       0.40966    1.14245    0.65792   1.00
C6       0.54396    1.35054    0.68581   1.00
H2       0.46609    1.10558    0.61265   1.00
H2       0.50486    1.39020    0.62672   1.00
H2       0.50718    1.12330    0.63806   1.00
H2       0.45792    1.37154    0.63653   1.00
H2       0.47252    1.09459    0.66253   1.00
H2       0.48257    1.39863    0.67235   1.00
H2       0.46473    1.14955    0.71437   1.00
H2       0.47366    1.34098    0.72099   1.00
H2       0.49965    1.17725    0.68891   1.00
H2       0.44908    1.31494    0.68420   1.00
H2       0.45328    1.19745    0.69904   1.00
H2       0.48986    1.29385    0.70770   1.00
H2       0.39725    1.13042    0.63114   1.00
H2       0.56425    1.36383    0.66515   1.00
H2       0.40702    1.12025    0.68063   1.00
H2       0.53893    1.37149    0.70928   1.00
H2       0.39189    1.16739    0.66666   1.00
H2       0.55817    1.32502    0.69851   1.00
C4       0.26975    1.00010    0.49521   1.00
C4       0.22809    1.00137    0.49432   1.00
C3       0.29103    0.96453    0.49199   1.00
C3       0.20496    0.96782    0.48605   1.00
C3       0.29146    1.03548    0.49953   1.00
C3       0.20830    1.03733    0.50184   1.00
C2       0.35405    0.99770    0.49509   1.00
C2       0.14378    1.00346    0.49438   1.00
C3       0.33189    0.96330    0.49172   1.00
C3       0.16409    0.96871    0.48626   1.00
C3       0.33304    1.03300    0.49891   1.00
C3       0.16664    1.03695    0.50199   1.00
H1       0.27763    0.93812    0.49010   1.00
H1       0.21694    0.94156    0.47919   1.00
C5       0.27165    1.07201    0.50454   1.00
C5       0.23002    1.07243    0.50873   1.00
H1       0.34549    0.93672    0.48915   1.00
H1       0.14909    0.94347    0.48022   1.00
H1       0.34948    1.05755    0.50163   1.00
H1       0.15152    1.06188    0.50749   1.00
C6       0.29485    1.10961    0.50490   1.00
C6       0.20881    1.10929    0.52075   1.00
H2       0.31655    1.10865    0.48167   1.00
H2       0.18690    1.10200    0.54260   1.00
H2       0.27714    1.13440    0.49609   1.00
H2       0.22772    1.12894    0.53694   1.00
C6       0.31394    1.11864    0.54548   1.00
C6       0.19058    1.13192    0.48542   1.00
H2       0.32708    1.09206    0.55725   1.00
H2       0.17617    1.11130    0.46581   1.00
C6       0.34541    1.15171    0.54713   1.00
C6       0.16089    1.16535    0.49483   1.00
H2       0.29051    1.12611    0.56577   1.00
H2       0.21454    1.14432    0.46844   1.00
C6       0.38265    1.14054    0.52393   1.00
C6       0.12292    1.14924    0.51349   1.00
C6       0.32926    1.19090    0.53142   1.00
C6       0.17893    1.19646    0.52222   1.00
C6       0.35755    1.15792    0.59034   1.00
C6       0.14946    1.18581    0.45604   1.00
H2       0.39442    1.11265    0.53391   1.00
H2       0.10980    1.12672    0.49514   1.00
H2       0.37670    1.13806    0.49282   1.00
H2       0.12846    1.13653    0.54208   1.00
H2       0.40541    1.16253    0.52748   1.00
H2       0.10137    1.17235    0.51743   1.00
H2       0.35045    1.21437    0.53527   1.00
H2       0.15902    1.22099    0.52634   1.00
H2       0.32275    1.18891    0.50035   1.00
H2       0.18506    1.18420    0.55092   1.00
H2       0.30255    1.19904    0.54672   1.00
H2       0.20615    1.20770    0.51014   1.00
H2       0.36958    1.13114    0.60275   1.00
H2       0.13617    1.16515    0.43575   1.00
H2       0.37975    1.18063    0.59298   1.00
H2       0.12851    1.20928    0.46107   1.00
H2       0.33261    1.16666    0.60811   1.00
H2       0.17498    1.19851    0.44183   1.00
C4       0.73025    1.00010    0.50479   1.00
C4       0.77191    1.00137    0.50568   1.00
C3       0.70897    0.96453    0.50801   1.00
C3       0.79504    0.96782    0.51395   1.00
C3       0.70854    1.03548    0.50047   1.00
C3       0.79170    1.03733    0.49816   1.00
C2       0.64595    0.99770    0.50491   1.00
C2       0.85622    1.00346    0.50562   1.00
C3       0.66811    0.96330    0.50828   1.00
C3       0.83591    0.96871    0.51374   1.00
C3       0.66696    1.03300    0.50109   1.00
C3       0.83336    1.03695    0.49801   1.00
H1       0.72237    0.93812    0.50990   1.00
H1       0.78306    0.94156    0.52081   1.00
C5       0.72835    1.07201    0.49546   1.00
C5       0.76998    1.07243    0.49127   1.00
H1       0.65451    0.93672    0.51085   1.00
H1       0.85091    0.94347    0.51978   1.00
H1       0.65052    1.05755    0.49837   1.00
H1       0.84848    1.06188    0.49251   1.00
C6       0.70515    1.10961    0.49510   1.00
C6       0.79119    1.10929    0.47925   1.00
H2       0.68345    1.10865    0.51833   1.00
H2       0.81310    1.10200    0.45740   1.00
H2       0.72286    1.13440    0.50391   1.00
H2       0.77228    1.12894    0.46306   1.00
C6       0.68606    1.11864    0.45452   1.00
C6       0.80942    1.13192    0.51458   1.00
H2       0.67292    1.09206    0.44275   1.00
H2       0.82383    1.11130    0.53419   1.00
C6       0.65459    1.15171    0.45287   1.00
C6       0.83911    1.16535    0.50517   1.00
H2       0.70949    1.12611    0.43423   1.00
H2       0.78546    1.14432    0.53156   1.00
C6       0.61735    1.14054    0.47607   1.00
C6       0.87708    1.14924    0.48651   1.00
C6       0.67074    1.19090    0.46858   1.00
C6       0.82107    1.19646    0.47778   1.00
C6       0.64245    1.15792    0.40966   1.00
C6       0.85054    1.18581    0.54396   1.00
H2       0.60558    1.11265    0.46609   1.00
H2       0.89020    1.12672    0.50486   1.00
H2       0.62330    1.13806    0.50718   1.00
H2       0.87154    1.13653    0.45792   1.00
H2       0.59459    1.16253    0.47252   1.00
H2       0.89863    1.17235    0.48257   1.00
H2       0.64955    1.21437    0.46473   1.00
H2       0.84098    1.22099    0.47366   1.00
H2       0.67725    1.18891    0.49965   1.00
H2       0.81494    1.18420    0.44908   1.00
H2       0.69745    1.19904    0.45328   1.00
H2       0.79385    1.20770    0.48986   1.00
H2       0.63042    1.13114    0.39725   1.00
H2       0.86383    1.16515    0.56425   1.00
H2       0.62025    1.18063    0.40702   1.00
H2       0.87149    1.20928    0.53893   1.00
H2       0.66739    1.16666    0.39189   1.00
H2       0.82502    1.19851    0.55817   1.00
C4       0.49521    0.76975    0.50010   1.00
C4       0.49432    0.72809    0.50137   1.00
C3       0.49199    0.79103    0.46453   1.00
C3       0.48605    0.70496    0.46782   1.00
C3       0.49953    0.79146    0.53548   1.00
C3       0.50184    0.70830    0.53733   1.00
C2       0.49509    0.85405    0.49770   1.00
C2       0.49438    0.64378    0.50346   1.00
C3       0.49172    0.83189    0.46330   1.00
C3       0.48626    0.66409    0.46871   1.00
C3       0.49891    0.83304    0.53300   1.00
C3       0.50199    0.66664    0.53695   1.00
H1       0.49010    0.77763    0.43812   1.00
H1       0.47919    0.71694    0.44156   1.00
C5       0.50454    0.77165    0.57201   1.00
C5       0.50873    0.73002    0.57243   1.00
H1       0.48915    0.84549    0.43672   1.00
H1       0.48022    0.64909    0.44347   1.00
H1       0.50163    0.84948    0.55755   1.00
H1       0.50749    0.65152    0.56188   1.00
C6       0.50490    0.79485    0.60961   1.00
C6       0.52075    0.70881    0.60929   1.00
H2       0.48167    0.81655    0.60865   1.00
H2       0.54260    0.68690    0.60200   1.00
H2       0.49609    0.77714    0.63440   1.00
H2       0.53694    0.72772    0.62894   1.00
C6       0.54548    0.81394    0.61864   1.00
C6       0.48542    0.69058    0.63192   1.00
H2       0.55725    0.82708    0.59206   1.00
H2       0.46581    0.67617    0.61130   1.00
C6       0.54713    0.84541    0.65171   1.00
C6       0.49483    0.66089    0.66535   1.00
H2       0.56577    0.79051    0.62611   1.00
H2       0.46844    0.71454    0.64432   1.00
C6       0.52393    0.88265    0.64054   1.00
C6       0.51349    0.62292    0.64924   1.00
C6       0.53142    0.82926    0.69090   1.00
C6       0.52222    0.67893    0.69646   1.00
C6       0.59034    0.85755    0.65792   1.00
C6       0.45604    0.64946    0.68581   1.00
H2       0.53391    0.89442    0.61265   1.00
H2       0.49514    0.60980    0.62672   1.00
H2       0.49282    0.87670    0.63806   1.00
H2       0.54208    0.62846    0.63653   1.00
H2       0.52748    0.90541    0.66253   1.00
H2       0.51743    0.60137    0.67235   1.00
H2       0.53527    0.85045    0.71437   1.00
H2       0.52634    0.65902    0.72099   1.00
H2       0.50035    0.82275    0.68891   1.00
H2       0.55092    0.68506    0.68420   1.00
H2       0.54672    0.80255    0.69904   1.00
H2       0.51014    0.70615    0.70770   1.00
H2       0.60275    0.86958    0.63114   1.00
H2       0.43575    0.63617    0.66515   1.00
H2       0.59298    0.87975    0.68063   1.00
H2       0.46107    0.62851    0.70928   1.00
H2       0.60811    0.83261    0.66666   1.00
H2       0.44183    0.67498    0.69851   1.00
C4       0.50010    0.99521    0.26975   1.00
C4       0.50137    0.99432    0.22809   1.00
C3       0.46453    0.99199    0.29103   1.00
C3       0.46782    0.98605    0.20496   1.00
C3       0.53548    0.99953    0.29146   1.00
C3       0.53733    1.00184    0.20830   1.00
C2       0.49770    0.99509    0.35405   1.00
C2       0.50346    0.99438    0.14378   1.00
C3       0.46330    0.99172    0.33189   1.00
C3       0.46871    0.98626    0.16409   1.00
C3       0.53300    0.99891    0.33304   1.00
C3       0.53695    1.00199    0.16664   1.00
H1       0.43812    0.99010    0.27763   1.00
H1       0.44156    0.97919    0.21694   1.00
C5       0.57201    1.00454    0.27165   1.00
C5       0.57243    1.00873    0.23002   1.00
H1       0.43672    0.98915    0.34549   1.00
H1       0.44347    0.98022    0.14909   1.00
H1       0.55755    1.00163    0.34948   1.00
H1       0.56188    1.00749    0.15152   1.00
C6       0.60961    1.00490    0.29485   1.00
C6       0.60929    1.02075    0.20881   1.00
H2       0.60865    0.98167    0.31655   1.00
H2       0.60200    1.04260    0.18690   1.00
H2       0.63440    0.99609    0.27714   1.00
H2       0.62894    1.03694    0.22772   1.00
C6       0.61864    1.04548    0.31394   1.00
C6       0.63192    0.98542    0.19058   1.00
H2       0.59206    1.05725    0.32708   1.00
H2       0.61130    0.96581    0.17617   1.00
C6       0.65171    1.04713    0.34541   1.00
C6       0.66535    0.99483    0.16089   1.00
H2       0.62611    1.06577    0.29051   1.00
H2       0.64432    0.96844    0.21454   1.00
C6       0.64054    1.02393    0.38265   1.00
C6       0.64924    1.01349    0.12292   1.00
C6       0.69090    1.03142    0.32926   1.00
C6       0.69646    1.02222    0.17893   1.00
C6       0.65792    1.09034    0.35755   1.00
C6       0.68581    0.95604    0.14946   1.00
H2       0.61265    1.03391    0.39442   1.00
H2       0.62672    0.99514    0.10980   1.00
H2       0.63806    0.99282    0.37670   1.00
H2       0.63653    1.04208    0.12846   1.00
H2       0.66253    1.02748    0.40541   1.00
H2       0.67235    1.01743    0.10137   1.00
H2       0.71437    1.03527    0.35045   1.00
H2       0.72099    1.02634    0.15902   1.00
H2       0.68891    1.00035    0.32275   1.00
H2       0.68420    1.05092    0.18506   1.00
H2       0.69904    1.04672    0.30255   1.00
H2       0.70770    1.01014    0.20615   1.00
H2       0.63114    1.10275    0.36958   1.00
H2       0.66515    0.93575    0.13617   1.00
H2       0.68063    1.09298    0.37975   1.00
H2       0.70928    0.96107    0.12851   1.00
H2       0.66666    1.10811    0.33261   1.00
H2       0.69851    0.94183    0.17498   1.00
C4       1.00010    0.50479    0.73025   1.00
C4       1.00137    0.50568    0.77191   1.00
C3       0.96453    0.50801    0.70897   1.00
C3       0.96782    0.51395    0.79504   1.00
C3       1.03548    0.50047    0.70854   1.00
C3       1.03733    0.49816    0.79170   1.00
C2       0.99770    0.50491    0.64595   1.00
C2       1.00346    0.50562    0.85622   1.00
C3       0.96330    0.50828    0.66811   1.00
C3       0.96871    0.51374    0.83591   1.00
C3       1.03300    0.50109    0.66696   1.00
C3       1.03695    0.49801    0.83336   1.00
H1       0.93812    0.50990    0.72237   1.00
H1       0.94156    0.52081    0.78306   1.00
C5       1.07201    0.49546    0.72835   1.00
C5       1.07243    0.49127    0.76998   1.00
H1       0.93672    0.51085    0.65451   1.00
H1       0.94347    0.51978    0.85091   1.00
H1       1.05755    0.49837    0.65052   1.00
H1       1.06188    0.49251    0.84848   1.00
C6       1.10961    0.49510    0.70515   1.00
C6       1.10929    0.47925    0.79119   1.00
H2       1.10865    0.51833    0.68345   1.00
H2       1.10200    0.45740    0.81310   1.00
H2       1.13440    0.50391    0.72286   1.00
H2       1.12894    0.46306    0.77228   1.00
C6       1.11864    0.45452    0.68606   1.00
C6       1.13192    0.51458    0.80942   1.00
H2       1.09206    0.44275    0.67292   1.00
H2       1.11130    0.53419    0.82383   1.00
C6       1.15171    0.45287    0.65459   1.00
C6       1.16535    0.50517    0.83911   1.00
H2       1.12611    0.43423    0.70949   1.00
H2       1.14432    0.53156    0.78546   1.00
C6       1.14054    0.47607    0.61735   1.00
C6       1.14924    0.48651    0.87708   1.00
C6       1.19090    0.46858    0.67074   1.00
C6       1.19646    0.47778    0.82107   1.00
C6       1.15792    0.40966    0.64245   1.00
C6       1.18581    0.54396    0.85054   1.00
H2       1.11265    0.46609    0.60558   1.00
H2       1.12672    0.50486    0.89020   1.00
H2       1.13806    0.50718    0.62330   1.00
H2       1.13653    0.45792    0.87154   1.00
H2       1.16253    0.47252    0.59459   1.00
H2       1.17235    0.48257    0.89863   1.00
H2       1.21437    0.46473    0.64955   1.00
H2       1.22099    0.47366    0.84098   1.00
H2       1.18891    0.49965    0.67725   1.00
H2       1.18420    0.44908    0.81494   1.00
H2       1.19904    0.45328    0.69745   1.00
H2       1.20770    0.48986    0.79385   1.00
H2       1.13114    0.39725    0.63042   1.00
H2       1.16515    0.56425    0.86383   1.00
H2       1.18063    0.40702    0.62025   1.00
H2       1.20928    0.53893    0.87149   1.00
H2       1.16666    0.39189    0.66739   1.00
H2       1.19851    0.55817    0.82502   1.00
C4       1.00479    0.73025    0.50010   1.00
C4       1.00568    0.77191    0.50137   1.00
C3       1.00801    0.70897    0.46453   1.00
C3       1.01395    0.79504    0.46782   1.00
C3       1.00047    0.70854    0.53548   1.00
C3       0.99816    0.79170    0.53733   1.00
C2       1.00491    0.64595    0.49770   1.00
C2       1.00562    0.85622    0.50346   1.00
C3       1.00828    0.66811    0.46330   1.00
C3       1.01374    0.83591    0.46871   1.00
C3       1.00109    0.66696    0.53300   1.00
C3       0.99801    0.83336    0.53695   1.00
H1       1.00990    0.72237    0.43812   1.00
H1       1.02081    0.78306    0.44156   1.00
C5       0.99546    0.72835    0.57201   1.00
C5       0.99127    0.76998    0.57243   1.00
H1       1.01085    0.65451    0.43672   1.00
H1       1.01978    0.85091    0.44347   1.00
H1       0.99837    0.65052    0.55755   1.00
H1       0.99251    0.84848    0.56188   1.00
C6       0.99510    0.70515    0.60961   1.00
C6       0.97925    0.79119    0.60929   1.00
H2       1.01833    0.68345    0.60865   1.00
H2       0.95740    0.81310    0.60200   1.00
H2       1.00391    0.72286    0.63440   1.00
H2       0.96306    0.77228    0.62894   1.00
C6       0.95452    0.68606    0.61864   1.00
C6       1.01458    0.80942    0.63192   1.00
H2       0.94275    0.67292    0.59206   1.00
H2       1.03419    0.82383    0.61130   1.00
C6       0.95287    0.65459    0.65171   1.00
C6       1.00517    0.83911    0.66535   1.00
H2       0.93423    0.70949    0.62611   1.00
H2       1.03156    0.78546    0.64432   1.00
C6       0.97607    0.61735    0.64054   1.00
C6       0.98651    0.87708    0.64924   1.00
C6       0.96858    0.67074    0.69090   1.00
C6       0.97778    0.82107    0.69646   1.00
C6       0.90966    0.64245    0.65792   1.00
C6       1.04396    0.85054    0.68581   1.00
H2       0.96609    0.60558    0.61265   1.00
H2       1.00486    0.89020    0.62672   1.00
H2       1.00718    0.62330    0.63806   1.00
H2       0.95792    0.87154    0.63653   1.00
H2       0.97252    0.59459    0.66253   1.00
H2       0.98257    0.89863    0.67235   1.00
H2       0.96473    0.64955    0.71437   1.00
H2       0.97366    0.84098    0.72099   1.00
H2       0.99965    0.67725    0.68891   1.00
H2       0.94908    0.81494    0.68420   1.00
H2       0.95328    0.69745    0.69904   1.00
H2       0.98986    0.79385    0.70770   1.00
H2       0.89725    0.63042    0.63114   1.00
H2       1.06425    0.86383    0.66515   1.00
H2       0.90702    0.62025    0.68063   1.00
H2       1.03893    0.87149    0.70928   1.00
H2       0.89189    0.66739    0.66666   1.00
H2       1.05817    0.82502    0.69851   1.00
C4       0.76975    0.50010    0.49521   1.00
C4       0.72809    0.50137    0.49432   1.00
C3       0.79103    0.46453    0.49199   1.00
C3       0.70496    0.46782    0.48605   1.00
C3       0.79146    0.53548    0.49953   1.00
C3       0.70830    0.53733    0.50184   1.00
C2       0.85405    0.49770    0.49509   1.00
C2       0.64378    0.50346    0.49438   1.00
C3       0.83189    0.46330    0.49172   1.00
C3       0.66409    0.46871    0.48626   1.00
C3       0.83304    0.53300    0.49891   1.00
C3       0.66664    0.53695    0.50199   1.00
H1       0.77763    0.43812    0.49010   1.00
H1       0.71694    0.44156    0.47919   1.00
C5       0.77165    0.57201    0.50454   1.00
C5       0.73002    0.57243    0.50873   1.00
H1       0.84549    0.43672    0.48915   1.00
H1       0.64909    0.44347    0.48022   1.00
H1       0.84948    0.55755    0.50163   1.00
H1       0.65152    0.56188    0.50749   1.00
C6       0.79485    0.60961    0.50490   1.00
C6       0.70881    0.60929    0.52075   1.00
H2       0.81655    0.60865    0.48167   1.00
H2       0.68690    0.60200    0.54260   1.00
H2       0.77714    0.63440    0.49609   1.00
H2       0.72772    0.62894    0.53694   1.00
C6       0.81394    0.61864    0.54548   1.00
C6       0.69058    0.63192    0.48542   1.00
H2       0.82708    0.59206    0.55725   1.00
H2       0.67617    0.61130    0.46581   1.00
C6       0.84541    0.65171    0.54713   1.00
C6       0.66089    0.66535    0.49483   1.00
H2       0.79051    0.62611    0.56577   1.00
H2       0.71454    0.64432    0.46844   1.00
C6       0.88265    0.64054    0.52393   1.00
C6       0.62292    0.64924    0.51349   1.00
C6       0.82926    0.69090    0.53142   1.00
C6       0.67893    0.69646    0.52222   1.00
C6       0.85755    0.65792    0.59034   1.00
C6       0.64946    0.68581    0.45604   1.00
H2       0.89442    0.61265    0.53391   1.00
H2       0.60980    0.62672    0.49514   1.00
H2       0.87670    0.63806    0.49282   1.00
H2       0.62846    0.63653    0.54208   1.00
H2       0.90541    0.66253    0.52748   1.00
H2       0.60137    0.67235    0.51743   1.00
H2       0.85045    0.71437    0.53527   1.00
H2       0.65902    0.72099    0.52634   1.00
H2       0.82275    0.68891    0.50035   1.00
H2       0.68506    0.68420    0.55092   1.00
H2       0.80255    0.69904    0.54672   1.00
H2       0.70615    0.70770    0.51014   1.00
H2       0.86958    0.63114    0.60275   1.00
H2       0.63617    0.66515    0.43575   1.00
H2       0.87975    0.68063    0.59298   1.00
H2       0.62851    0.70928    0.46107   1.00
H2       0.83261    0.66666    0.60811   1.00
H2       0.67498    0.69851    0.44183   1.00
C4       1.23025    0.50010    0.50479   1.00
C4       1.27191    0.50137    0.50568   1.00
C3       1.20897    0.46453    0.50801   1.00
C3       1.29504    0.46782    0.51395   1.00
C3       1.20854    0.53548    0.50047   1.00
C3       1.29170    0.53733    0.49816   1.00
C2       1.14595    0.49770    0.50491   1.00
C2       1.35622    0.50346    0.50562   1.00
C3       1.16811    0.46330    0.50828   1.00
C3       1.33591    0.46871    0.51374   1.00
C3       1.16696    0.53300    0.50109   1.00
C3       1.33336    0.53695    0.49801   1.00
H1       1.22237    0.43812    0.50990   1.00
H1       1.28306    0.44156    0.52081   1.00
C5       1.22835    0.57201    0.49546   1.00
C5       1.26998    0.57243    0.49127   1.00
H1       1.15451    0.43672    0.51085   1.00
H1       1.35091    0.44347    0.51978   1.00
H1       1.15052    0.55755    0.49837   1.00
H1       1.34848    0.56188    0.49251   1.00
C6       1.20515    0.60961    0.49510   1.00
C6       1.29119    0.60929    0.47925   1.00
H2       1.18345    0.60865    0.51833   1.00
H2       1.31310    0.60200    0.45740   1.00
H2       1.22286    0.63440    0.50391   1.00
H2       1.27228    0.62894    0.46306   1.00
C6       1.18606    0.61864    0.45452   1.00
C6       1.30942    0.63192    0.51458   1.00
H2       1.17292    0.59206    0.44275   1.00
H2       1.32383    0.61130    0.53419   1.00
C6       1.15459    0.65171    0.45287   1.00
C6       1.33911    0.66535    0.50517   1.00
H2       1.20949    0.62611    0.43423   1.00
H2       1.28546    0.64432    0.53156   1.00
C6       1.11735    0.64054    0.47607   1.00
C6       1.37708    0.64924    0.48651   1.00
C6       1.17074    0.69090    0.46858   1.00
C6       1.32107    0.69646    0.47778   1.00
C6       1.14245    0.65792    0.40966   1.00
C6       1.35054    0.68581    0.54396   1.00
H2       1.10558    0.61265    0.46609   1.00
H2       1.39020    0.62672    0.50486   1.00
H2       1.12330    0.63806    0.50718   1.00
H2       1.37154    0.63653    0.45792   1.00
H2       1.09459    0.66253    0.47252   1.00
H2       1.39863    0.67235    0.48257   1.00
H2       1.14955    0.71437    0.46473   1.00
H2       1.34098    0.72099    0.47366   1.00
H2       1.17725    0.68891    0.49965   1.00
H2       1.31494    0.68420    0.44908   1.00
H2       1.19745    0.69904    0.45328   1.00
H2       1.29385    0.70770    0.48986   1.00
H2       1.13042    0.63114    0.39725   1.00
H2       1.36383    0.66515    0.56425   1.00
H2       1.12025    0.68063    0.40702   1.00
H2       1.37149    0.70928    0.53893   1.00
H2       1.16739    0.66666    0.39189   1.00
H2       1.32502    0.69851    0.55817   1.00
C4       0.99521    0.26975    0.50010   1.00
C4       0.99432    0.22809    0.50137   1.00
C3       0.99199    0.29103    0.46453   1.00
C3       0.98605    0.20496    0.46782   1.00
C3       0.99953    0.29146    0.53548   1.00
C3       1.00184    0.20830    0.53733   1.00
C2       0.99509    0.35405    0.49770   1.00
C2       0.99438    0.14378    0.50346   1.00
C3       0.99172    0.33189    0.46330   1.00
C3       0.98626    0.16409    0.46871   1.00
C3       0.99891    0.33304    0.53300   1.00
C3       1.00199    0.16664    0.53695   1.00
H1       0.99010    0.27763    0.43812   1.00
H1       0.97919    0.21694    0.44156   1.00
C5       1.00454    0.27165    0.57201   1.00
C5       1.00873    0.23002    0.57243   1.00
H1       0.98915    0.34549    0.43672   1.00
H1       0.98022    0.14909    0.44347   1.00
H1       1.00163    0.34948    0.55755   1.00
H1       1.00749    0.15152    0.56188   1.00
C6       1.00490    0.29485    0.60961   1.00
C6       1.02075    0.20881    0.60929   1.00
H2       0.98167    0.31655    0.60865   1.00
H2       1.04260    0.18690    0.60200   1.00
H2       0.99609    0.27714    0.63440   1.00
H2       1.03694    0.22772    0.62894   1.00
C6       1.04548    0.31394    0.61864   1.00
C6       0.98542    0.19058    0.63192   1.00
H2       1.05725    0.32708    0.59206   1.00
H2       0.96581    0.17617    0.61130   1.00
C6       1.04713    0.34541    0.65171   1.00
C6       0.99483    0.16089    0.66535   1.00
H2       1.06577    0.29051    0.62611   1.00
H2       0.96844    0.21454    0.64432   1.00
C6       1.02393    0.38265    0.64054   1.00
C6       1.01349    0.12292    0.64924   1.00
C6       1.03142    0.32926    0.69090   1.00
C6       1.02222    0.17893    0.69646   1.00
C6       1.09034    0.35755    0.65792   1.00
C6       0.95604    0.14946    0.68581   1.00
H2       1.03391    0.39442    0.61265   1.00
H2       0.99514    0.10980    0.62672   1.00
H2       0.99282    0.37670    0.63806   1.00
H2       1.04208    0.12846    0.63653   1.00
H2       1.02748    0.40541    0.66253   1.00
H2       1.01743    0.10137    0.67235   1.00
H2       1.03527    0.35045    0.71437   1.00
H2       1.02634    0.15902    0.72099   1.00
H2       1.00035    0.32275    0.68891   1.00
H2       1.05092    0.18506    0.68420   1.00
H2       1.04672    0.30255    0.69904   1.00
H2       1.01014    0.20615    0.70770   1.00
H2       1.10275    0.36958    0.63114   1.00
H2       0.93575    0.13617    0.66515   1.00
H2       1.09298    0.37975    0.68063   1.00
H2       0.96107    0.12851    0.70928   1.00
H2       1.10811    0.33261    0.66666   1.00
H2       0.94183    0.17498    0.69851   1.00
C4       1.00010    0.49521    0.26975   1.00
C4       1.00137    0.49432    0.22809   1.00
C3       0.96453    0.49199    0.29103   1.00
C3       0.96782    0.48605    0.20496   1.00
C3       1.03548    0.49953    0.29146   1.00
C3       1.03733    0.50184    0.20830   1.00
C2       0.99770    0.49509    0.35405   1.00
C2       1.00346    0.49438    0.14378   1.00
C3       0.96330    0.49172    0.33189   1.00
C3       0.96871    0.48626    0.16409   1.00
C3       1.03300    0.49891    0.33304   1.00
C3       1.03695    0.50199    0.16664   1.00
H1       0.93812    0.49010    0.27763   1.00
H1       0.94156    0.47919    0.21694   1.00
C5       1.07201    0.50454    0.27165   1.00
C5       1.07243    0.50873    0.23002   1.00
H1       0.93672    0.48915    0.34549   1.00
H1       0.94347    0.48022    0.14909   1.00
H1       1.05755    0.50163    0.34948   1.00
H1       1.06188    0.50749    0.15152   1.00
C6       1.10961    0.50490    0.29485   1.00
C6       1.10929    0.52075    0.20881   1.00
H2       1.10865    0.48167    0.31655   1.00
H2       1.10200    0.54260    0.18690   1.00
H2       1.13440    0.49609    0.27714   1.00
H2       1.12894    0.53694    0.22772   1.00
C6       1.11864    0.54548    0.31394   1.00
C6       1.13192    0.48542    0.19058   1.00
H2       1.09206    0.55725    0.32708   1.00
H2       1.11130    0.46581    0.17617   1.00
C6       1.15171    0.54713    0.34541   1.00
C6       1.16535    0.49483    0.16089   1.00
H2       1.12611    0.56577    0.29051   1.00
H2       1.14432    0.46844    0.21454   1.00
C6       1.14054    0.52393    0.38265   1.00
C6       1.14924    0.51349    0.12292   1.00
C6       1.19090    0.53142    0.32926   1.00
C6       1.19646    0.52222    0.17893   1.00
C6       1.15792    0.59034    0.35755   1.00
C6       1.18581    0.45604    0.14946   1.00
H2       1.11265    0.53391    0.39442   1.00
H2       1.12672    0.49514    0.10980   1.00
H2       1.13806    0.49282    0.37670   1.00
H2       1.13653    0.54208    0.12846   1.00
H2       1.16253    0.52748    0.40541   1.00
H2       1.17235    0.51743    0.10137   1.00
H2       1.21437    0.53527    0.35045   1.00
H2       1.22099    0.52634    0.15902   1.00
H2       1.18891    0.50035    0.32275   1.00
H2       1.18420    0.55092    0.18506   1.00
H2       1.19904    0.54672    0.30255   1.00
H2       1.20770    0.51014    0.20615   1.00
H2       1.13114    0.60275    0.36958   1.00
H2       1.16515    0.43575    0.13617   1.00
H2       1.18063    0.59298    0.37975   1.00
H2       1.20928    0.46107    0.12851   1.00
H2       1.16666    0.60811    0.33261   1.00
H2       1.19851    0.44183    0.17498   1.00
