data_IRMOF10_SG202_interpen_Ligand11lp_label_j.

_audit_creation_method             'generated by an auxiliary program of Tobunporous'

_symmetry_space_group_name_H-M     'P 1'
_symmetry_Int_Tables_number        1
_symmetry_cell_setting             triclinic

_cell_length_a                    34.2800
_cell_length_b                    34.2800
_cell_length_c                    34.2800
_cell_angle_alpha                 90.0000
_cell_angle_beta                  90.0000
_cell_angle_gamma                 90.0000

loop_
_atom_site_label
_atom_site_fract_x
_atom_site_fract_y
_atom_site_fract_z
_atom_site_occupancy
O1       0.75000    0.75000    0.75000   1.00
Zn1      0.71720    0.78280    0.78280   1.00
Zn1      0.78280    0.71720    0.78280   1.00
Zn1      0.78280    0.78280    0.71720   1.00
Zn1      0.71720    0.71720    0.71720   1.00
O2       0.72650    0.77350    0.83820   1.00
O2       0.72650    0.83820    0.77350   1.00
O2       0.66180    0.77350    0.77350   1.00
O2       0.77350    0.72650    0.83820   1.00
O2       0.83820    0.72650    0.77350   1.00
O2       0.77350    0.66180    0.77350   1.00
O2       0.77350    0.83820    0.72650   1.00
O2       0.83820    0.77350    0.72650   1.00
O2       0.77350    0.77350    0.66180   1.00
O2       0.66180    0.72650    0.72650   1.00
O2       0.72650    0.66180    0.72650   1.00
O2       0.72650    0.72650    0.66180   1.00
C1       0.75000    0.75000    0.85520   1.00
C1       0.75000    0.85520    0.75000   1.00
C1       0.64480    0.75000    0.75000   1.00
C1       0.85520    0.75000    0.75000   1.00
C1       0.75000    0.64480    0.75000   1.00
C1       0.75000    0.75000    0.64480   1.00
O1       0.25000    0.25000    0.75000   1.00
Zn1      0.21720    0.28280    0.78280   1.00
Zn1      0.28280    0.21720    0.78280   1.00
Zn1      0.28280    0.28280    0.71720   1.00
Zn1      0.21720    0.21720    0.71720   1.00
O2       0.22650    0.27350    0.83820   1.00
O2       0.22650    0.33820    0.77350   1.00
O2       0.16180    0.27350    0.77350   1.00
O2       0.27350    0.22650    0.83820   1.00
O2       0.33820    0.22650    0.77350   1.00
O2       0.27350    0.16180    0.77350   1.00
O2       0.27350    0.33820    0.72650   1.00
O2       0.33820    0.27350    0.72650   1.00
O2       0.27350    0.27350    0.66180   1.00
O2       0.16180    0.22650    0.72650   1.00
O2       0.22650    0.16180    0.72650   1.00
O2       0.22650    0.22650    0.66180   1.00
C1       0.25000    0.25000    0.85520   1.00
C1       0.25000    0.35520    0.75000   1.00
C1       0.14480    0.25000    0.75000   1.00
C1       0.35520    0.25000    0.75000   1.00
C1       0.25000    0.14480    0.75000   1.00
C1       0.25000    0.25000    0.64480   1.00
O1       0.25000    0.75000    0.25000   1.00
Zn1      0.21720    0.78280    0.28280   1.00
Zn1      0.28280    0.71720    0.28280   1.00
Zn1      0.28280    0.78280    0.21720   1.00
Zn1      0.21720    0.71720    0.21720   1.00
O2       0.22650    0.77350    0.33820   1.00
O2       0.22650    0.83820    0.27350   1.00
O2       0.16180    0.77350    0.27350   1.00
O2       0.27350    0.72650    0.33820   1.00
O2       0.33820    0.72650    0.27350   1.00
O2       0.27350    0.66180    0.27350   1.00
O2       0.27350    0.83820    0.22650   1.00
O2       0.33820    0.77350    0.22650   1.00
O2       0.27350    0.77350    0.16180   1.00
O2       0.16180    0.72650    0.22650   1.00
O2       0.22650    0.66180    0.22650   1.00
O2       0.22650    0.72650    0.16180   1.00
C1       0.25000    0.75000    0.35520   1.00
C1       0.25000    0.85520    0.25000   1.00
C1       0.14480    0.75000    0.25000   1.00
C1       0.35520    0.75000    0.25000   1.00
C1       0.25000    0.64480    0.25000   1.00
C1       0.25000    0.75000    0.14480   1.00
O1       0.75000    0.25000    0.25000   1.00
Zn1      0.71720    0.28280    0.28280   1.00
Zn1      0.78280    0.21720    0.28280   1.00
Zn1      0.78280    0.28280    0.21720   1.00
Zn1      0.71720    0.21720    0.21720   1.00
O2       0.72650    0.27350    0.33820   1.00
O2       0.72650    0.33820    0.27350   1.00
O2       0.66180    0.27350    0.27350   1.00
O2       0.77350    0.22650    0.33820   1.00
O2       0.83820    0.22650    0.27350   1.00
O2       0.77350    0.16180    0.27350   1.00
O2       0.77350    0.33820    0.22650   1.00
O2       0.83820    0.27350    0.22650   1.00
O2       0.77350    0.27350    0.16180   1.00
O2       0.66180    0.22650    0.22650   1.00
O2       0.72650    0.16180    0.22650   1.00
O2       0.72650    0.22650    0.16180   1.00
C1       0.75000    0.25000    0.35520   1.00
C1       0.75000    0.35520    0.25000   1.00
C1       0.64480    0.25000    0.25000   1.00
C1       0.85520    0.25000    0.25000   1.00
C1       0.75000    0.14480    0.25000   1.00
C1       0.75000    0.25000    0.14480   1.00
O1       0.25000    0.25000    0.25000   1.00
Zn1      0.28280    0.21720    0.21720   1.00
Zn1      0.21720    0.28280    0.21720   1.00
Zn1      0.21720    0.21720    0.28280   1.00
Zn1      0.28280    0.28280    0.28280   1.00
O2       0.27350    0.22650    0.16180   1.00
O2       0.27350    0.16180    0.22650   1.00
O2       0.33820    0.22650    0.22650   1.00
O2       0.22650    0.27350    0.16180   1.00
O2       0.16180    0.27350    0.22650   1.00
O2       0.22650    0.33820    0.22650   1.00
O2       0.22650    0.16180    0.27350   1.00
O2       0.16180    0.22650    0.27350   1.00
O2       0.22650    0.22650    0.33820   1.00
O2       0.33820    0.27350    0.27350   1.00
O2       0.27350    0.33820    0.27350   1.00
O2       0.27350    0.27350    0.33820   1.00
C1       0.25000    0.25000    0.14480   1.00
C1       0.25000    0.14480    0.25000   1.00
C1       0.35520    0.25000    0.25000   1.00
C1       0.14480    0.25000    0.25000   1.00
C1       0.25000    0.35520    0.25000   1.00
C1       0.25000    0.25000    0.35520   1.00
O1       0.75000    0.75000    0.25000   1.00
Zn1      0.78280    0.71720    0.21720   1.00
Zn1      0.71720    0.78280    0.21720   1.00
Zn1      0.71720    0.71720    0.28280   1.00
Zn1      0.78280    0.78280    0.28280   1.00
O2       0.77350    0.72650    0.16180   1.00
O2       0.77350    0.66180    0.22650   1.00
O2       0.83820    0.72650    0.22650   1.00
O2       0.72650    0.77350    0.16180   1.00
O2       0.66180    0.77350    0.22650   1.00
O2       0.72650    0.83820    0.22650   1.00
O2       0.72650    0.66180    0.27350   1.00
O2       0.66180    0.72650    0.27350   1.00
O2       0.72650    0.72650    0.33820   1.00
O2       0.83820    0.77350    0.27350   1.00
O2       0.77350    0.83820    0.27350   1.00
O2       0.77350    0.77350    0.33820   1.00
C1       0.75000    0.75000    0.14480   1.00
C1       0.75000    0.64480    0.25000   1.00
C1       0.85520    0.75000    0.25000   1.00
C1       0.64480    0.75000    0.25000   1.00
C1       0.75000    0.85520    0.25000   1.00
C1       0.75000    0.75000    0.35520   1.00
O1       0.75000    0.25000    0.75000   1.00
Zn1      0.78280    0.21720    0.71720   1.00
Zn1      0.71720    0.28280    0.71720   1.00
Zn1      0.71720    0.21720    0.78280   1.00
Zn1      0.78280    0.28280    0.78280   1.00
O2       0.77350    0.22650    0.66180   1.00
O2       0.77350    0.16180    0.72650   1.00
O2       0.83820    0.22650    0.72650   1.00
O2       0.72650    0.27350    0.66180   1.00
O2       0.66180    0.27350    0.72650   1.00
O2       0.72650    0.33820    0.72650   1.00
O2       0.72650    0.16180    0.77350   1.00
O2       0.66180    0.22650    0.77350   1.00
O2       0.72650    0.22650    0.83820   1.00
O2       0.83820    0.27350    0.77350   1.00
O2       0.77350    0.33820    0.77350   1.00
O2       0.77350    0.27350    0.83820   1.00
C1       0.75000    0.25000    0.64480   1.00
C1       0.75000    0.14480    0.75000   1.00
C1       0.85520    0.25000    0.75000   1.00
C1       0.64480    0.25000    0.75000   1.00
C1       0.75000    0.35520    0.75000   1.00
C1       0.75000    0.25000    0.85520   1.00
O1       0.25000    0.75000    0.75000   1.00
Zn1      0.28280    0.71720    0.71720   1.00
Zn1      0.21720    0.78280    0.71720   1.00
Zn1      0.21720    0.71720    0.78280   1.00
Zn1      0.28280    0.78280    0.78280   1.00
O2       0.27350    0.72650    0.66180   1.00
O2       0.27350    0.66180    0.72650   1.00
O2       0.33820    0.72650    0.72650   1.00
O2       0.22650    0.77350    0.66180   1.00
O2       0.16180    0.77350    0.72650   1.00
O2       0.22650    0.83820    0.72650   1.00
O2       0.22650    0.66180    0.77350   1.00
O2       0.16180    0.72650    0.77350   1.00
O2       0.22650    0.72650    0.83820   1.00
O2       0.33820    0.77350    0.77350   1.00
O2       0.27350    0.83820    0.77350   1.00
O2       0.27350    0.77350    0.83820   1.00
C1       0.25000    0.75000    0.64480   1.00
C1       0.25000    0.64480    0.75000   1.00
C1       0.35520    0.75000    0.75000   1.00
C1       0.14480    0.75000    0.75000   1.00
C1       0.25000    0.85520    0.75000   1.00
C1       0.25000    0.75000    0.85520   1.00
O1       1.00000    1.00000    1.00000   1.00
Zn1      0.96720    1.03280    1.03280   1.00
Zn1      1.03280    0.96720    1.03280   1.00
Zn1      1.03280    1.03280    0.96720   1.00
Zn1      0.96720    0.96720    0.96720   1.00
O2       0.97650    1.02350    1.08820   1.00
O2       0.97650    1.08820    1.02350   1.00
O2       0.91180    1.02350    1.02350   1.00
O2       1.02350    0.97650    1.08820   1.00
O2       1.08820    0.97650    1.02350   1.00
O2       1.02350    0.91180    1.02350   1.00
O2       1.02350    1.08820    0.97650   1.00
O2       1.08820    1.02350    0.97650   1.00
O2       1.02350    1.02350    0.91180   1.00
O2       0.91180    0.97650    0.97650   1.00
O2       0.97650    0.91180    0.97650   1.00
O2       0.97650    0.97650    0.91180   1.00
C1       1.00000    1.00000    1.10520   1.00
C1       1.00000    1.10520    1.00000   1.00
C1       0.89480    1.00000    1.00000   1.00
C1       1.10520    1.00000    1.00000   1.00
C1       1.00000    0.89480    1.00000   1.00
C1       1.00000    1.00000    0.89480   1.00
O1       0.50000    0.50000    1.00000   1.00
Zn1      0.46720    0.53280    1.03280   1.00
Zn1      0.53280    0.46720    1.03280   1.00
Zn1      0.53280    0.53280    0.96720   1.00
Zn1      0.46720    0.46720    0.96720   1.00
O2       0.47650    0.52350    1.08820   1.00
O2       0.47650    0.58820    1.02350   1.00
O2       0.41180    0.52350    1.02350   1.00
O2       0.52350    0.47650    1.08820   1.00
O2       0.58820    0.47650    1.02350   1.00
O2       0.52350    0.41180    1.02350   1.00
O2       0.52350    0.58820    0.97650   1.00
O2       0.58820    0.52350    0.97650   1.00
O2       0.52350    0.52350    0.91180   1.00
O2       0.41180    0.47650    0.97650   1.00
O2       0.47650    0.41180    0.97650   1.00
O2       0.47650    0.47650    0.91180   1.00
C1       0.50000    0.50000    1.10520   1.00
C1       0.50000    0.60520    1.00000   1.00
C1       0.39480    0.50000    1.00000   1.00
C1       0.60520    0.50000    1.00000   1.00
C1       0.50000    0.39480    1.00000   1.00
C1       0.50000    0.50000    0.89480   1.00
O1       0.50000    1.00000    0.50000   1.00
Zn1      0.46720    1.03280    0.53280   1.00
Zn1      0.53280    0.96720    0.53280   1.00
Zn1      0.53280    1.03280    0.46720   1.00
Zn1      0.46720    0.96720    0.46720   1.00
O2       0.47650    1.02350    0.58820   1.00
O2       0.47650    1.08820    0.52350   1.00
O2       0.41180    1.02350    0.52350   1.00
O2       0.52350    0.97650    0.58820   1.00
O2       0.58820    0.97650    0.52350   1.00
O2       0.52350    0.91180    0.52350   1.00
O2       0.52350    1.08820    0.47650   1.00
O2       0.58820    1.02350    0.47650   1.00
O2       0.52350    1.02350    0.41180   1.00
O2       0.41180    0.97650    0.47650   1.00
O2       0.47650    0.91180    0.47650   1.00
O2       0.47650    0.97650    0.41180   1.00
C1       0.50000    1.00000    0.60520   1.00
C1       0.50000    1.10520    0.50000   1.00
C1       0.39480    1.00000    0.50000   1.00
C1       0.60520    1.00000    0.50000   1.00
C1       0.50000    0.89480    0.50000   1.00
C1       0.50000    1.00000    0.39480   1.00
O1       1.00000    0.50000    0.50000   1.00
Zn1      0.96720    0.53280    0.53280   1.00
Zn1      1.03280    0.46720    0.53280   1.00
Zn1      1.03280    0.53280    0.46720   1.00
Zn1      0.96720    0.46720    0.46720   1.00
O2       0.97650    0.52350    0.58820   1.00
O2       0.97650    0.58820    0.52350   1.00
O2       0.91180    0.52350    0.52350   1.00
O2       1.02350    0.47650    0.58820   1.00
O2       1.08820    0.47650    0.52350   1.00
O2       1.02350    0.41180    0.52350   1.00
O2       1.02350    0.58820    0.47650   1.00
O2       1.08820    0.52350    0.47650   1.00
O2       1.02350    0.52350    0.41180   1.00
O2       0.91180    0.47650    0.47650   1.00
O2       0.97650    0.41180    0.47650   1.00
O2       0.97650    0.47650    0.41180   1.00
C1       1.00000    0.50000    0.60520   1.00
C1       1.00000    0.60520    0.50000   1.00
C1       0.89480    0.50000    0.50000   1.00
C1       1.10520    0.50000    0.50000   1.00
C1       1.00000    0.39480    0.50000   1.00
C1       1.00000    0.50000    0.39480   1.00
O1       0.50000    0.50000    0.50000   1.00
Zn1      0.53280    0.46720    0.46720   1.00
Zn1      0.46720    0.53280    0.46720   1.00
Zn1      0.46720    0.46720    0.53280   1.00
Zn1      0.53280    0.53280    0.53280   1.00
O2       0.52350    0.47650    0.41180   1.00
O2       0.52350    0.41180    0.47650   1.00
O2       0.58820    0.47650    0.47650   1.00
O2       0.47650    0.52350    0.41180   1.00
O2       0.41180    0.52350    0.47650   1.00
O2       0.47650    0.58820    0.47650   1.00
O2       0.47650    0.41180    0.52350   1.00
O2       0.41180    0.47650    0.52350   1.00
O2       0.47650    0.47650    0.58820   1.00
O2       0.58820    0.52350    0.52350   1.00
O2       0.52350    0.58820    0.52350   1.00
O2       0.52350    0.52350    0.58820   1.00
C1       0.50000    0.50000    0.39480   1.00
C1       0.50000    0.39480    0.50000   1.00
C1       0.60520    0.50000    0.50000   1.00
C1       0.39480    0.50000    0.50000   1.00
C1       0.50000    0.60520    0.50000   1.00
C1       0.50000    0.50000    0.60520   1.00
O1       1.00000    1.00000    0.50000   1.00
Zn1      1.03280    0.96720    0.46720   1.00
Zn1      0.96720    1.03280    0.46720   1.00
Zn1      0.96720    0.96720    0.53280   1.00
Zn1      1.03280    1.03280    0.53280   1.00
O2       1.02350    0.97650    0.41180   1.00
O2       1.02350    0.91180    0.47650   1.00
O2       1.08820    0.97650    0.47650   1.00
O2       0.97650    1.02350    0.41180   1.00
O2       0.91180    1.02350    0.47650   1.00
O2       0.97650    1.08820    0.47650   1.00
O2       0.97650    0.91180    0.52350   1.00
O2       0.91180    0.97650    0.52350   1.00
O2       0.97650    0.97650    0.58820   1.00
O2       1.08820    1.02350    0.52350   1.00
O2       1.02350    1.08820    0.52350   1.00
O2       1.02350    1.02350    0.58820   1.00
C1       1.00000    1.00000    0.39480   1.00
C1       1.00000    0.89480    0.50000   1.00
C1       1.10520    1.00000    0.50000   1.00
C1       0.89480    1.00000    0.50000   1.00
C1       1.00000    1.10520    0.50000   1.00
C1       1.00000    1.00000    0.60520   1.00
O1       1.00000    0.50000    1.00000   1.00
Zn1      1.03280    0.46720    0.96720   1.00
Zn1      0.96720    0.53280    0.96720   1.00
Zn1      0.96720    0.46720    1.03280   1.00
Zn1      1.03280    0.53280    1.03280   1.00
O2       1.02350    0.47650    0.91180   1.00
O2       1.02350    0.41180    0.97650   1.00
O2       1.08820    0.47650    0.97650   1.00
O2       0.97650    0.52350    0.91180   1.00
O2       0.91180    0.52350    0.97650   1.00
O2       0.97650    0.58820    0.97650   1.00
O2       0.97650    0.41180    1.02350   1.00
O2       0.91180    0.47650    1.02350   1.00
O2       0.97650    0.47650    1.08820   1.00
O2       1.08820    0.52350    1.02350   1.00
O2       1.02350    0.58820    1.02350   1.00
O2       1.02350    0.52350    1.08820   1.00
C1       1.00000    0.50000    0.89480   1.00
C1       1.00000    0.39480    1.00000   1.00
C1       1.10520    0.50000    1.00000   1.00
C1       0.89480    0.50000    1.00000   1.00
C1       1.00000    0.60520    1.00000   1.00
C1       1.00000    0.50000    1.10520   1.00
O1       0.50000    1.00000    1.00000   1.00
Zn1      0.53280    0.96720    0.96720   1.00
Zn1      0.46720    1.03280    0.96720   1.00
Zn1      0.46720    0.96720    1.03280   1.00
Zn1      0.53280    1.03280    1.03280   1.00
O2       0.52350    0.97650    0.91180   1.00
O2       0.52350    0.91180    0.97650   1.00
O2       0.58820    0.97650    0.97650   1.00
O2       0.47650    1.02350    0.91180   1.00
O2       0.41180    1.02350    0.97650   1.00
O2       0.47650    1.08820    0.97650   1.00
O2       0.47650    0.91180    1.02350   1.00
O2       0.41180    0.97650    1.02350   1.00
O2       0.47650    0.97650    1.08820   1.00
O2       0.58820    1.02350    1.02350   1.00
O2       0.52350    1.08820    1.02350   1.00
O2       0.52350    1.02350    1.08820   1.00
C1       0.50000    1.00000    0.89480   1.00
C1       0.50000    0.89480    1.00000   1.00
C1       0.60520    1.00000    1.00000   1.00
C1       0.39480    1.00000    1.00000   1.00
C1       0.50000    1.10520    1.00000   1.00
C1       0.50000    1.00000    1.10520   1.00
C4       0.75012    0.74984    0.97915   1.00
C4       0.74988    0.75016    1.02085   1.00
C3a      0.78466    0.74132    0.95746   1.00
C3       0.74771    0.71510    1.04232   1.00
C3       0.71592    0.75788    0.95768   1.00
C3a      0.75170    0.78569    1.04254   1.00
C2       0.74994    0.74995    0.89488   1.00
C2       0.74993    0.74995    1.10512   1.00
C3       0.78404    0.74159    0.91595   1.00
C3       0.74785    0.71504    1.08363   1.00
C3       0.71591    0.75804    0.91637   1.00
C3       0.75177    0.78502    1.08405   1.00
C5       0.82287    0.73242    0.97772   1.00
H1       0.74629    0.68754    1.02691   1.00
H1       0.81041    0.73529    0.89979   1.00
H1       0.74637    0.68750    1.09901   1.00
H1       0.68912    0.76458    0.90099   1.00
H1       0.75336    0.81209    1.10021   1.00
C5       0.75421    0.82485    1.02228   1.00
H1       0.68913    0.76448    0.97309   1.00
H2       0.76645    0.84696    1.04256   1.00
H2       0.77480    0.82323    0.99731   1.00
H2       0.84758    0.73775    0.95744   1.00
H2       0.82727    0.75260    1.00269   1.00
N1       0.71579    0.83749    1.00857   1.00
C6       0.68516    0.84700    1.03073   1.00
C6       0.70499    0.84279    0.97154   1.00
C6       0.65422    0.85802    1.00759   1.00
C6       0.66684    0.85535    0.96995   1.00
H3       0.68503    0.84571    1.06197   1.00
H3       0.72358    0.83756    0.94700   1.00
H3       0.62568    0.86702    1.01713   1.00
H3       0.65008    0.86181    0.94425   1.00
N1       0.82388    0.69199    0.99143   1.00
C6       0.82584    0.68011    1.02846   1.00
C6       0.82414    0.65991    0.96927   1.00
C6       0.82685    0.63996    1.03005   1.00
C6       0.82576    0.62711    0.99241   1.00
H3       0.82620    0.69942    1.05300   1.00
H3       0.82288    0.66016    0.93803   1.00
H3       0.82820    0.62205    1.05575   1.00
H3       0.82614    0.59718    0.98287   1.00
C4       0.74984    0.97915    0.75012   1.00
C4       0.75016    1.02085    0.74988   1.00
C3a      0.74132    0.95746    0.78466   1.00
C3       0.71510    1.04232    0.74771   1.00
C3       0.75788    0.95768    0.71592   1.00
C3a      0.78569    1.04254    0.75170   1.00
C2       0.74995    0.89488    0.74994   1.00
C2       0.74995    1.10512    0.74993   1.00
C3       0.74159    0.91595    0.78404   1.00
C3       0.71504    1.08363    0.74785   1.00
C3       0.75804    0.91637    0.71591   1.00
C3       0.78502    1.08405    0.75177   1.00
C5       0.73242    0.97772    0.82287   1.00
H1       0.68754    1.02691    0.74629   1.00
H1       0.73529    0.89979    0.81041   1.00
H1       0.68750    1.09901    0.74637   1.00
H1       0.76458    0.90099    0.68912   1.00
H1       0.81209    1.10021    0.75336   1.00
C5       0.82485    1.02228    0.75421   1.00
H1       0.76448    0.97309    0.68913   1.00
H2       0.84696    1.04256    0.76645   1.00
H2       0.82323    0.99731    0.77480   1.00
H2       0.73775    0.95744    0.84758   1.00
H2       0.75260    1.00269    0.82727   1.00
N1       0.83749    1.00857    0.71579   1.00
C6       0.84700    1.03073    0.68516   1.00
C6       0.84279    0.97154    0.70499   1.00
C6       0.85802    1.00759    0.65422   1.00
C6       0.85535    0.96995    0.66684   1.00
H3       0.84571    1.06197    0.68503   1.00
H3       0.83756    0.94700    0.72358   1.00
H3       0.86702    1.01713    0.62568   1.00
H3       0.86181    0.94425    0.65008   1.00
N1       0.69199    0.99143    0.82388   1.00
C6       0.68011    1.02846    0.82584   1.00
C6       0.65991    0.96927    0.82414   1.00
C6       0.63996    1.03005    0.82685   1.00
C6       0.62711    0.99241    0.82576   1.00
H3       0.69942    1.05300    0.82620   1.00
H3       0.66016    0.93803    0.82288   1.00
H3       0.62205    1.05575    0.82820   1.00
H3       0.59718    0.98287    0.82614   1.00
C4       0.52085    0.75012    0.75016   1.00
C4       0.47915    0.74988    0.74984   1.00
C3a      0.54254    0.78466    0.75868   1.00
C3       0.45768    0.74771    0.78490   1.00
C3       0.54232    0.71592    0.74212   1.00
C3a      0.45746    0.75170    0.71431   1.00
C2       0.60512    0.74994    0.75005   1.00
C2       0.39488    0.74993    0.75005   1.00
C3       0.58405    0.78404    0.75841   1.00
C3       0.41637    0.74785    0.78496   1.00
C3       0.58363    0.71591    0.74196   1.00
C3       0.41595    0.75177    0.71498   1.00
C5       0.52228    0.82287    0.76758   1.00
H1       0.47309    0.74629    0.81246   1.00
H1       0.60021    0.81041    0.76471   1.00
H1       0.40099    0.74637    0.81250   1.00
H1       0.59901    0.68912    0.73542   1.00
H1       0.39979    0.75336    0.68791   1.00
C5       0.47772    0.75421    0.67515   1.00
H1       0.52691    0.68913    0.73552   1.00
H2       0.45744    0.76645    0.65304   1.00
H2       0.50269    0.77480    0.67677   1.00
H2       0.54256    0.84758    0.76225   1.00
H2       0.49731    0.82727    0.74740   1.00
N1       0.49143    0.71579    0.66251   1.00
C6       0.46927    0.68516    0.65300   1.00
C6       0.52846    0.70499    0.65721   1.00
C6       0.49241    0.65422    0.64198   1.00
C6       0.53005    0.66684    0.64465   1.00
H3       0.43803    0.68503    0.65429   1.00
H3       0.55300    0.72358    0.66244   1.00
H3       0.48287    0.62568    0.63298   1.00
H3       0.55575    0.65008    0.63819   1.00
N1       0.50857    0.82388    0.80801   1.00
C6       0.47154    0.82584    0.81989   1.00
C6       0.53073    0.82414    0.84009   1.00
C6       0.46995    0.82685    0.86004   1.00
C6       0.50759    0.82576    0.87289   1.00
H3       0.44700    0.82620    0.80058   1.00
H3       0.56197    0.82288    0.83984   1.00
H3       0.44425    0.82820    0.87795   1.00
H3       0.51713    0.82614    0.90282   1.00
C4       0.97915    0.75012    0.74984   1.00
C4       1.02085    0.74988    0.75016   1.00
C3a      0.95746    0.78466    0.74132   1.00
C3       1.04232    0.74771    0.71510   1.00
C3       0.95768    0.71592    0.75788   1.00
C3a      1.04254    0.75170    0.78569   1.00
C2       0.89488    0.74994    0.74995   1.00
C2       1.10512    0.74993    0.74995   1.00
C3       0.91595    0.78404    0.74159   1.00
C3       1.08363    0.74785    0.71504   1.00
C3       0.91637    0.71591    0.75804   1.00
C3       1.08405    0.75177    0.78502   1.00
C5       0.97772    0.82287    0.73242   1.00
H1       1.02691    0.74629    0.68754   1.00
H1       0.89979    0.81041    0.73529   1.00
H1       1.09901    0.74637    0.68750   1.00
H1       0.90099    0.68912    0.76458   1.00
H1       1.10021    0.75336    0.81209   1.00
C5       1.02228    0.75421    0.82485   1.00
H1       0.97309    0.68913    0.76448   1.00
H2       1.04256    0.76645    0.84696   1.00
H2       0.99731    0.77480    0.82323   1.00
H2       0.95744    0.84758    0.73775   1.00
H2       1.00269    0.82727    0.75260   1.00
N1       1.00857    0.71579    0.83749   1.00
C6       1.03073    0.68516    0.84700   1.00
C6       0.97154    0.70499    0.84279   1.00
C6       1.00759    0.65422    0.85802   1.00
C6       0.96995    0.66684    0.85535   1.00
H3       1.06197    0.68503    0.84571   1.00
H3       0.94700    0.72358    0.83756   1.00
H3       1.01713    0.62568    0.86702   1.00
H3       0.94425    0.65008    0.86181   1.00
N1       0.99143    0.82388    0.69199   1.00
C6       1.02846    0.82584    0.68011   1.00
C6       0.96927    0.82414    0.65991   1.00
C6       1.03005    0.82685    0.63996   1.00
C6       0.99241    0.82576    0.62711   1.00
H3       1.05300    0.82620    0.69942   1.00
H3       0.93803    0.82288    0.66016   1.00
H3       1.05575    0.82820    0.62205   1.00
H3       0.98287    0.82614    0.59718   1.00
C4       0.75016    0.52085    0.75012   1.00
C4       0.74984    0.47915    0.74988   1.00
C3a      0.75868    0.54254    0.78466   1.00
C3       0.78490    0.45768    0.74771   1.00
C3       0.74212    0.54232    0.71592   1.00
C3a      0.71431    0.45746    0.75170   1.00
C2       0.75005    0.60512    0.74994   1.00
C2       0.75005    0.39488    0.74993   1.00
C3       0.75841    0.58405    0.78404   1.00
C3       0.78496    0.41637    0.74785   1.00
C3       0.74196    0.58363    0.71591   1.00
C3       0.71498    0.41595    0.75177   1.00
C5       0.76758    0.52228    0.82287   1.00
H1       0.81246    0.47309    0.74629   1.00
H1       0.76471    0.60021    0.81041   1.00
H1       0.81250    0.40099    0.74637   1.00
H1       0.73542    0.59901    0.68912   1.00
H1       0.68791    0.39979    0.75336   1.00
C5       0.67515    0.47772    0.75421   1.00
H1       0.73552    0.52691    0.68913   1.00
H2       0.65304    0.45744    0.76645   1.00
H2       0.67677    0.50269    0.77480   1.00
H2       0.76225    0.54256    0.84758   1.00
H2       0.74740    0.49731    0.82727   1.00
N1       0.66251    0.49143    0.71579   1.00
C6       0.65300    0.46927    0.68516   1.00
C6       0.65721    0.52846    0.70499   1.00
C6       0.64198    0.49241    0.65422   1.00
C6       0.64465    0.53005    0.66684   1.00
H3       0.65429    0.43803    0.68503   1.00
H3       0.66244    0.55300    0.72358   1.00
H3       0.63298    0.48287    0.62568   1.00
H3       0.63819    0.55575    0.65008   1.00
N1       0.80801    0.50857    0.82388   1.00
C6       0.81989    0.47154    0.82584   1.00
C6       0.84009    0.53073    0.82414   1.00
C6       0.86004    0.46995    0.82685   1.00
C6       0.87289    0.50759    0.82576   1.00
H3       0.80058    0.44700    0.82620   1.00
H3       0.83984    0.56197    0.82288   1.00
H3       0.87795    0.44425    0.82820   1.00
H3       0.90282    0.51713    0.82614   1.00
C4       0.75012    0.75016    0.52085   1.00
C4       0.74988    0.74984    0.47915   1.00
C3a      0.78466    0.75868    0.54254   1.00
C3       0.74771    0.78490    0.45768   1.00
C3       0.71592    0.74212    0.54232   1.00
C3a      0.75170    0.71431    0.45746   1.00
C2       0.74994    0.75005    0.60512   1.00
C2       0.74993    0.75005    0.39488   1.00
C3       0.78404    0.75841    0.58405   1.00
C3       0.74785    0.78496    0.41637   1.00
C3       0.71591    0.74196    0.58363   1.00
C3       0.75177    0.71498    0.41595   1.00
C5       0.82287    0.76758    0.52228   1.00
H1       0.74629    0.81246    0.47309   1.00
H1       0.81041    0.76471    0.60021   1.00
H1       0.74637    0.81250    0.40099   1.00
H1       0.68912    0.73542    0.59901   1.00
H1       0.75336    0.68791    0.39979   1.00
C5       0.75421    0.67515    0.47772   1.00
H1       0.68913    0.73552    0.52691   1.00
H2       0.76645    0.65304    0.45744   1.00
H2       0.77480    0.67677    0.50269   1.00
H2       0.84758    0.76225    0.54256   1.00
H2       0.82727    0.74740    0.49731   1.00
N1       0.71579    0.66251    0.49143   1.00
C6       0.68516    0.65300    0.46927   1.00
C6       0.70499    0.65721    0.52846   1.00
C6       0.65422    0.64198    0.49241   1.00
C6       0.66684    0.64465    0.53005   1.00
H3       0.68503    0.65429    0.43803   1.00
H3       0.72358    0.66244    0.55300   1.00
H3       0.62568    0.63298    0.48287   1.00
H3       0.65008    0.63819    0.55575   1.00
N1       0.82388    0.80801    0.50857   1.00
C6       0.82584    0.81989    0.47154   1.00
C6       0.82414    0.84009    0.53073   1.00
C6       0.82685    0.86004    0.46995   1.00
C6       0.82576    0.87289    0.50759   1.00
H3       0.82620    0.80058    0.44700   1.00
H3       0.82288    0.83984    0.56197   1.00
H3       0.82820    0.87795    0.44425   1.00
H3       0.82614    0.90282    0.51713   1.00
C4       0.25012    0.24984    0.97915   1.00
C4       0.24988    0.25016    1.02085   1.00
C3a      0.28466    0.24132    0.95746   1.00
C3       0.24771    0.21510    1.04232   1.00
C3       0.21592    0.25788    0.95768   1.00
C3a      0.25170    0.28569    1.04254   1.00
C2       0.24994    0.24995    0.89488   1.00
C2       0.24993    0.24995    1.10512   1.00
C3       0.28404    0.24159    0.91595   1.00
C3       0.24785    0.21504    1.08363   1.00
C3       0.21591    0.25804    0.91637   1.00
C3       0.25177    0.28502    1.08405   1.00
C5       0.32287    0.23242    0.97772   1.00
H1       0.24629    0.18754    1.02691   1.00
H1       0.31041    0.23529    0.89979   1.00
H1       0.24637    0.18750    1.09901   1.00
H1       0.18912    0.26458    0.90099   1.00
H1       0.25336    0.31209    1.10021   1.00
C5       0.25421    0.32485    1.02228   1.00
H1       0.18913    0.26448    0.97309   1.00
H2       0.26645    0.34696    1.04256   1.00
H2       0.27480    0.32323    0.99731   1.00
H2       0.34758    0.23775    0.95744   1.00
H2       0.32727    0.25260    1.00269   1.00
N1       0.21579    0.33749    1.00857   1.00
C6       0.18516    0.34700    1.03073   1.00
C6       0.20499    0.34279    0.97154   1.00
C6       0.15422    0.35802    1.00759   1.00
C6       0.16684    0.35535    0.96995   1.00
H3       0.18503    0.34571    1.06197   1.00
H3       0.22358    0.33756    0.94700   1.00
H3       0.12568    0.36702    1.01713   1.00
H3       0.15008    0.36181    0.94425   1.00
N1       0.32388    0.19199    0.99143   1.00
C6       0.32584    0.18011    1.02846   1.00
C6       0.32414    0.15991    0.96927   1.00
C6       0.32685    0.13996    1.03005   1.00
C6       0.32576    0.12711    0.99241   1.00
H3       0.32620    0.19942    1.05300   1.00
H3       0.32288    0.16016    0.93803   1.00
H3       0.32820    0.12205    1.05575   1.00
H3       0.32614    0.09718    0.98287   1.00
C4       0.24984    0.47915    0.75012   1.00
C4       0.25016    0.52085    0.74988   1.00
C3a      0.24132    0.45746    0.78466   1.00
C3       0.21510    0.54232    0.74771   1.00
C3       0.25788    0.45768    0.71592   1.00
C3a      0.28569    0.54254    0.75170   1.00
C2       0.24995    0.39488    0.74994   1.00
C2       0.24995    0.60512    0.74993   1.00
C3       0.24159    0.41595    0.78404   1.00
C3       0.21504    0.58363    0.74785   1.00
C3       0.25804    0.41637    0.71591   1.00
C3       0.28502    0.58405    0.75177   1.00
C5       0.23242    0.47772    0.82287   1.00
H1       0.18754    0.52691    0.74629   1.00
H1       0.23529    0.39979    0.81041   1.00
H1       0.18750    0.59901    0.74637   1.00
H1       0.26458    0.40099    0.68912   1.00
H1       0.31209    0.60021    0.75336   1.00
C5       0.32485    0.52228    0.75421   1.00
H1       0.26448    0.47309    0.68913   1.00
H2       0.34696    0.54256    0.76645   1.00
H2       0.32323    0.49731    0.77480   1.00
H2       0.23775    0.45744    0.84758   1.00
H2       0.25260    0.50269    0.82727   1.00
N1       0.33749    0.50857    0.71579   1.00
C6       0.34700    0.53073    0.68516   1.00
C6       0.34279    0.47154    0.70499   1.00
C6       0.35802    0.50759    0.65422   1.00
C6       0.35535    0.46995    0.66684   1.00
H3       0.34571    0.56197    0.68503   1.00
H3       0.33756    0.44700    0.72358   1.00
H3       0.36702    0.51713    0.62568   1.00
H3       0.36181    0.44425    0.65008   1.00
N1       0.19199    0.49143    0.82388   1.00
C6       0.18011    0.52846    0.82584   1.00
C6       0.15991    0.46927    0.82414   1.00
C6       0.13996    0.53005    0.82685   1.00
C6       0.12711    0.49241    0.82576   1.00
H3       0.19942    0.55300    0.82620   1.00
H3       0.16016    0.43803    0.82288   1.00
H3       0.12205    0.55575    0.82820   1.00
H3       0.09718    0.48287    0.82614   1.00
C4       0.02085    0.25012    0.75016   1.00
C4       -0.02085   0.24988    0.74984   1.00
C3a      0.04254    0.28466    0.75868   1.00
C3       -0.04232   0.24771    0.78490   1.00
C3       0.04232    0.21592    0.74212   1.00
C3a      -0.04254   0.25170    0.71431   1.00
C2       0.10512    0.24994    0.75005   1.00
C2       -0.10512   0.24993    0.75005   1.00
C3       0.08405    0.28404    0.75841   1.00
C3       -0.08363   0.24785    0.78496   1.00
C3       0.08363    0.21591    0.74196   1.00
C3       -0.08405   0.25177    0.71498   1.00
C5       0.02228    0.32287    0.76758   1.00
H1       -0.02691   0.24629    0.81246   1.00
H1       0.10021    0.31041    0.76471   1.00
H1       -0.09901   0.24637    0.81250   1.00
H1       0.09901    0.18912    0.73542   1.00
H1       -0.10021   0.25336    0.68791   1.00
C5       -0.02228   0.25421    0.67515   1.00
H1       0.02691    0.18913    0.73552   1.00
H2       -0.04256   0.26645    0.65304   1.00
H2       0.00269    0.27480    0.67677   1.00
H2       0.04256    0.34758    0.76225   1.00
H2       -0.00269   0.32727    0.74740   1.00
N1       -0.00857   0.21579    0.66251   1.00
C6       -0.03073   0.18516    0.65300   1.00
C6       0.02846    0.20499    0.65721   1.00
C6       -0.00759   0.15422    0.64198   1.00
C6       0.03005    0.16684    0.64465   1.00
H3       -0.06197   0.18503    0.65429   1.00
H3       0.05300    0.22358    0.66244   1.00
H3       -0.01713   0.12568    0.63298   1.00
H3       0.05575    0.15008    0.63819   1.00
N1       0.00857    0.32388    0.80801   1.00
C6       -0.02846   0.32584    0.81989   1.00
C6       0.03073    0.32414    0.84009   1.00
C6       -0.03005   0.32685    0.86004   1.00
C6       0.00759    0.32576    0.87289   1.00
H3       -0.05300   0.32620    0.80058   1.00
H3       0.06197    0.32288    0.83984   1.00
H3       -0.05575   0.32820    0.87795   1.00
H3       0.01713    0.32614    0.90282   1.00
C4       0.47915    0.25012    0.74984   1.00
C4       0.52085    0.24988    0.75016   1.00
C3a      0.45746    0.28466    0.74132   1.00
C3       0.54232    0.24771    0.71510   1.00
C3       0.45768    0.21592    0.75788   1.00
C3a      0.54254    0.25170    0.78569   1.00
C2       0.39488    0.24994    0.74995   1.00
C2       0.60512    0.24993    0.74995   1.00
C3       0.41595    0.28404    0.74159   1.00
C3       0.58363    0.24785    0.71504   1.00
C3       0.41637    0.21591    0.75804   1.00
C3       0.58405    0.25177    0.78502   1.00
C5       0.47772    0.32287    0.73242   1.00
H1       0.52691    0.24629    0.68754   1.00
H1       0.39979    0.31041    0.73529   1.00
H1       0.59901    0.24637    0.68750   1.00
H1       0.40099    0.18912    0.76458   1.00
H1       0.60021    0.25336    0.81209   1.00
C5       0.52228    0.25421    0.82485   1.00
H1       0.47309    0.18913    0.76448   1.00
H2       0.54256    0.26645    0.84696   1.00
H2       0.49731    0.27480    0.82323   1.00
H2       0.45744    0.34758    0.73775   1.00
H2       0.50269    0.32727    0.75260   1.00
N1       0.50857    0.21579    0.83749   1.00
C6       0.53073    0.18516    0.84700   1.00
C6       0.47154    0.20499    0.84279   1.00
C6       0.50759    0.15422    0.85802   1.00
C6       0.46995    0.16684    0.85535   1.00
H3       0.56197    0.18503    0.84571   1.00
H3       0.44700    0.22358    0.83756   1.00
H3       0.51713    0.12568    0.86702   1.00
H3       0.44425    0.15008    0.86181   1.00
N1       0.49143    0.32388    0.69199   1.00
C6       0.52846    0.32584    0.68011   1.00
C6       0.46927    0.32414    0.65991   1.00
C6       0.53005    0.32685    0.63996   1.00
C6       0.49241    0.32576    0.62711   1.00
H3       0.55300    0.32620    0.69942   1.00
H3       0.43803    0.32288    0.66016   1.00
H3       0.55575    0.32820    0.62205   1.00
H3       0.48287    0.32614    0.59718   1.00
C4       0.25016    0.02085    0.75012   1.00
C4       0.24984    -0.02085   0.74988   1.00
C3a      0.25868    0.04254    0.78466   1.00
C3       0.28490    -0.04232   0.74771   1.00
C3       0.24212    0.04232    0.71592   1.00
C3a      0.21431    -0.04254   0.75170   1.00
C2       0.25005    0.10512    0.74994   1.00
C2       0.25005    -0.10512   0.74993   1.00
C3       0.25841    0.08405    0.78404   1.00
C3       0.28496    -0.08363   0.74785   1.00
C3       0.24196    0.08363    0.71591   1.00
C3       0.21498    -0.08405   0.75177   1.00
C5       0.26758    0.02228    0.82287   1.00
H1       0.31246    -0.02691   0.74629   1.00
H1       0.26471    0.10021    0.81041   1.00
H1       0.31250    -0.09901   0.74637   1.00
H1       0.23542    0.09901    0.68912   1.00
H1       0.18791    -0.10021   0.75336   1.00
C5       0.17515    -0.02228   0.75421   1.00
H1       0.23552    0.02691    0.68913   1.00
H2       0.15304    -0.04256   0.76645   1.00
H2       0.17677    0.00269    0.77480   1.00
H2       0.26225    0.04256    0.84758   1.00
H2       0.24740    -0.00269   0.82727   1.00
N1       0.16251    -0.00857   0.71579   1.00
C6       0.15300    -0.03073   0.68516   1.00
C6       0.15721    0.02846    0.70499   1.00
C6       0.14198    -0.00759   0.65422   1.00
C6       0.14465    0.03005    0.66684   1.00
H3       0.15429    -0.06197   0.68503   1.00
H3       0.16244    0.05300    0.72358   1.00
H3       0.13298    -0.01713   0.62568   1.00
H3       0.13819    0.05575    0.65008   1.00
N1       0.30801    0.00857    0.82388   1.00
C6       0.31989    -0.02846   0.82584   1.00
C6       0.34009    0.03073    0.82414   1.00
C6       0.36004    -0.03005   0.82685   1.00
C6       0.37289    0.00759    0.82576   1.00
H3       0.30058    -0.05300   0.82620   1.00
H3       0.33984    0.06197    0.82288   1.00
H3       0.37795    -0.05575   0.82820   1.00
H3       0.40282    0.01713    0.82614   1.00
C4       0.25012    0.25016    0.52085   1.00
C4       0.24988    0.24984    0.47915   1.00
C3a      0.28466    0.25868    0.54254   1.00
C3       0.24771    0.28490    0.45768   1.00
C3       0.21592    0.24212    0.54232   1.00
C3a      0.25170    0.21431    0.45746   1.00
C2       0.24994    0.25005    0.60512   1.00
C2       0.24993    0.25005    0.39488   1.00
C3       0.28404    0.25841    0.58405   1.00
C3       0.24785    0.28496    0.41637   1.00
C3       0.21591    0.24196    0.58363   1.00
C3       0.25177    0.21498    0.41595   1.00
C5       0.32287    0.26758    0.52228   1.00
H1       0.24629    0.31246    0.47309   1.00
H1       0.31041    0.26471    0.60021   1.00
H1       0.24637    0.31250    0.40099   1.00
H1       0.18912    0.23542    0.59901   1.00
H1       0.25336    0.18791    0.39979   1.00
C5       0.25421    0.17515    0.47772   1.00
H1       0.18913    0.23552    0.52691   1.00
H2       0.26645    0.15304    0.45744   1.00
H2       0.27480    0.17677    0.50269   1.00
H2       0.34758    0.26225    0.54256   1.00
H2       0.32727    0.24740    0.49731   1.00
N1       0.21579    0.16251    0.49143   1.00
C6       0.18516    0.15300    0.46927   1.00
C6       0.20499    0.15721    0.52846   1.00
C6       0.15422    0.14198    0.49241   1.00
C6       0.16684    0.14465    0.53005   1.00
H3       0.18503    0.15429    0.43803   1.00
H3       0.22358    0.16244    0.55300   1.00
H3       0.12568    0.13298    0.48287   1.00
H3       0.15008    0.13819    0.55575   1.00
N1       0.32388    0.30801    0.50857   1.00
C6       0.32584    0.31989    0.47154   1.00
C6       0.32414    0.34009    0.53073   1.00
C6       0.32685    0.36004    0.46995   1.00
C6       0.32576    0.37289    0.50759   1.00
H3       0.32620    0.30058    0.44700   1.00
H3       0.32288    0.33984    0.56197   1.00
H3       0.32820    0.37795    0.44425   1.00
H3       0.32614    0.40282    0.51713   1.00
C4       0.25012    0.74984    0.47915   1.00
C4       0.24988    0.75016    0.52085   1.00
C3a      0.28466    0.74132    0.45746   1.00
C3       0.24771    0.71510    0.54232   1.00
C3       0.21592    0.75788    0.45768   1.00
C3a      0.25170    0.78569    0.54254   1.00
C2       0.24994    0.74995    0.39488   1.00
C2       0.24993    0.74995    0.60512   1.00
C3       0.28404    0.74159    0.41595   1.00
C3       0.24785    0.71504    0.58363   1.00
C3       0.21591    0.75804    0.41637   1.00
C3       0.25177    0.78502    0.58405   1.00
C5       0.32287    0.73242    0.47772   1.00
H1       0.24629    0.68754    0.52691   1.00
H1       0.31041    0.73529    0.39979   1.00
H1       0.24637    0.68750    0.59901   1.00
H1       0.18912    0.76458    0.40099   1.00
H1       0.25336    0.81209    0.60021   1.00
C5       0.25421    0.82485    0.52228   1.00
H1       0.18913    0.76448    0.47309   1.00
H2       0.26645    0.84696    0.54256   1.00
H2       0.27480    0.82323    0.49731   1.00
H2       0.34758    0.73775    0.45744   1.00
H2       0.32727    0.75260    0.50269   1.00
N1       0.21579    0.83749    0.50857   1.00
C6       0.18516    0.84700    0.53073   1.00
C6       0.20499    0.84279    0.47154   1.00
C6       0.15422    0.85802    0.50759   1.00
C6       0.16684    0.85535    0.46995   1.00
H3       0.18503    0.84571    0.56197   1.00
H3       0.22358    0.83756    0.44700   1.00
H3       0.12568    0.86702    0.51713   1.00
H3       0.15008    0.86181    0.44425   1.00
N1       0.32388    0.69199    0.49143   1.00
C6       0.32584    0.68011    0.52846   1.00
C6       0.32414    0.65991    0.46927   1.00
C6       0.32685    0.63996    0.53005   1.00
C6       0.32576    0.62711    0.49241   1.00
H3       0.32620    0.69942    0.55300   1.00
H3       0.32288    0.66016    0.43803   1.00
H3       0.32820    0.62205    0.55575   1.00
H3       0.32614    0.59718    0.48287   1.00
C4       0.24984    0.97915    0.25012   1.00
C4       0.25016    1.02085    0.24988   1.00
C3a      0.24132    0.95746    0.28466   1.00
C3       0.21510    1.04232    0.24771   1.00
C3       0.25788    0.95768    0.21592   1.00
C3a      0.28569    1.04254    0.25170   1.00
C2       0.24995    0.89488    0.24994   1.00
C2       0.24995    1.10512    0.24993   1.00
C3       0.24159    0.91595    0.28404   1.00
C3       0.21504    1.08363    0.24785   1.00
C3       0.25804    0.91637    0.21591   1.00
C3       0.28502    1.08405    0.25177   1.00
C5       0.23242    0.97772    0.32287   1.00
H1       0.18754    1.02691    0.24629   1.00
H1       0.23529    0.89979    0.31041   1.00
H1       0.18750    1.09901    0.24637   1.00
H1       0.26458    0.90099    0.18912   1.00
H1       0.31209    1.10021    0.25336   1.00
C5       0.32485    1.02228    0.25421   1.00
H1       0.26448    0.97309    0.18913   1.00
H2       0.34696    1.04256    0.26645   1.00
H2       0.32323    0.99731    0.27480   1.00
H2       0.23775    0.95744    0.34758   1.00
H2       0.25260    1.00269    0.32727   1.00
N1       0.33749    1.00857    0.21579   1.00
C6       0.34700    1.03073    0.18516   1.00
C6       0.34279    0.97154    0.20499   1.00
C6       0.35802    1.00759    0.15422   1.00
C6       0.35535    0.96995    0.16684   1.00
H3       0.34571    1.06197    0.18503   1.00
H3       0.33756    0.94700    0.22358   1.00
H3       0.36702    1.01713    0.12568   1.00
H3       0.36181    0.94425    0.15008   1.00
N1       0.19199    0.99143    0.32388   1.00
C6       0.18011    1.02846    0.32584   1.00
C6       0.15991    0.96927    0.32414   1.00
C6       0.13996    1.03005    0.32685   1.00
C6       0.12711    0.99241    0.32576   1.00
H3       0.19942    1.05300    0.32620   1.00
H3       0.16016    0.93803    0.32288   1.00
H3       0.12205    1.05575    0.32820   1.00
H3       0.09718    0.98287    0.32614   1.00
C4       0.02085    0.75012    0.25016   1.00
C4       -0.02085   0.74988    0.24984   1.00
C3a      0.04254    0.78466    0.25868   1.00
C3       -0.04232   0.74771    0.28490   1.00
C3       0.04232    0.71592    0.24212   1.00
C3a      -0.04254   0.75170    0.21431   1.00
C2       0.10512    0.74994    0.25005   1.00
C2       -0.10512   0.74993    0.25005   1.00
C3       0.08405    0.78404    0.25841   1.00
C3       -0.08363   0.74785    0.28496   1.00
C3       0.08363    0.71591    0.24196   1.00
C3       -0.08405   0.75177    0.21498   1.00
C5       0.02228    0.82287    0.26758   1.00
H1       -0.02691   0.74629    0.31246   1.00
H1       0.10021    0.81041    0.26471   1.00
H1       -0.09901   0.74637    0.31250   1.00
H1       0.09901    0.68912    0.23542   1.00
H1       -0.10021   0.75336    0.18791   1.00
C5       -0.02228   0.75421    0.17515   1.00
H1       0.02691    0.68913    0.23552   1.00
H2       -0.04256   0.76645    0.15304   1.00
H2       0.00269    0.77480    0.17677   1.00
H2       0.04256    0.84758    0.26225   1.00
H2       -0.00269   0.82727    0.24740   1.00
N1       -0.00857   0.71579    0.16251   1.00
C6       -0.03073   0.68516    0.15300   1.00
C6       0.02846    0.70499    0.15721   1.00
C6       -0.00759   0.65422    0.14198   1.00
C6       0.03005    0.66684    0.14465   1.00
H3       -0.06197   0.68503    0.15429   1.00
H3       0.05300    0.72358    0.16244   1.00
H3       -0.01713   0.62568    0.13298   1.00
H3       0.05575    0.65008    0.13819   1.00
N1       0.00857    0.82388    0.30801   1.00
C6       -0.02846   0.82584    0.31989   1.00
C6       0.03073    0.82414    0.34009   1.00
C6       -0.03005   0.82685    0.36004   1.00
C6       0.00759    0.82576    0.37289   1.00
H3       -0.05300   0.82620    0.30058   1.00
H3       0.06197    0.82288    0.33984   1.00
H3       -0.05575   0.82820    0.37795   1.00
H3       0.01713    0.82614    0.40282   1.00
C4       0.47915    0.75012    0.24984   1.00
C4       0.52085    0.74988    0.25016   1.00
C3a      0.45746    0.78466    0.24132   1.00
C3       0.54232    0.74771    0.21510   1.00
C3       0.45768    0.71592    0.25788   1.00
C3a      0.54254    0.75170    0.28569   1.00
C2       0.39488    0.74994    0.24995   1.00
C2       0.60512    0.74993    0.24995   1.00
C3       0.41595    0.78404    0.24159   1.00
C3       0.58363    0.74785    0.21504   1.00
C3       0.41637    0.71591    0.25804   1.00
C3       0.58405    0.75177    0.28502   1.00
C5       0.47772    0.82287    0.23242   1.00
H1       0.52691    0.74629    0.18754   1.00
H1       0.39979    0.81041    0.23529   1.00
H1       0.59901    0.74637    0.18750   1.00
H1       0.40099    0.68912    0.26458   1.00
H1       0.60021    0.75336    0.31209   1.00
C5       0.52228    0.75421    0.32485   1.00
H1       0.47309    0.68913    0.26448   1.00
H2       0.54256    0.76645    0.34696   1.00
H2       0.49731    0.77480    0.32323   1.00
H2       0.45744    0.84758    0.23775   1.00
H2       0.50269    0.82727    0.25260   1.00
N1       0.50857    0.71579    0.33749   1.00
C6       0.53073    0.68516    0.34700   1.00
C6       0.47154    0.70499    0.34279   1.00
C6       0.50759    0.65422    0.35802   1.00
C6       0.46995    0.66684    0.35535   1.00
H3       0.56197    0.68503    0.34571   1.00
H3       0.44700    0.72358    0.33756   1.00
H3       0.51713    0.62568    0.36702   1.00
H3       0.44425    0.65008    0.36181   1.00
N1       0.49143    0.82388    0.19199   1.00
C6       0.52846    0.82584    0.18011   1.00
C6       0.46927    0.82414    0.15991   1.00
C6       0.53005    0.82685    0.13996   1.00
C6       0.49241    0.82576    0.12711   1.00
H3       0.55300    0.82620    0.19942   1.00
H3       0.43803    0.82288    0.16016   1.00
H3       0.55575    0.82820    0.12205   1.00
H3       0.48287    0.82614    0.09718   1.00
C4       0.25016    0.52085    0.25012   1.00
C4       0.24984    0.47915    0.24988   1.00
C3a      0.25868    0.54254    0.28466   1.00
C3       0.28490    0.45768    0.24771   1.00
C3       0.24212    0.54232    0.21592   1.00
C3a      0.21431    0.45746    0.25170   1.00
C2       0.25005    0.60512    0.24994   1.00
C2       0.25005    0.39488    0.24993   1.00
C3       0.25841    0.58405    0.28404   1.00
C3       0.28496    0.41637    0.24785   1.00
C3       0.24196    0.58363    0.21591   1.00
C3       0.21498    0.41595    0.25177   1.00
C5       0.26758    0.52228    0.32287   1.00
H1       0.31246    0.47309    0.24629   1.00
H1       0.26471    0.60021    0.31041   1.00
H1       0.31250    0.40099    0.24637   1.00
H1       0.23542    0.59901    0.18912   1.00
H1       0.18791    0.39979    0.25336   1.00
C5       0.17515    0.47772    0.25421   1.00
H1       0.23552    0.52691    0.18913   1.00
H2       0.15304    0.45744    0.26645   1.00
H2       0.17677    0.50269    0.27480   1.00
H2       0.26225    0.54256    0.34758   1.00
H2       0.24740    0.49731    0.32727   1.00
N1       0.16251    0.49143    0.21579   1.00
C6       0.15300    0.46927    0.18516   1.00
C6       0.15721    0.52846    0.20499   1.00
C6       0.14198    0.49241    0.15422   1.00
C6       0.14465    0.53005    0.16684   1.00
H3       0.15429    0.43803    0.18503   1.00
H3       0.16244    0.55300    0.22358   1.00
H3       0.13298    0.48287    0.12568   1.00
H3       0.13819    0.55575    0.15008   1.00
N1       0.30801    0.50857    0.32388   1.00
C6       0.31989    0.47154    0.32584   1.00
C6       0.34009    0.53073    0.32414   1.00
C6       0.36004    0.46995    0.32685   1.00
C6       0.37289    0.50759    0.32576   1.00
H3       0.30058    0.44700    0.32620   1.00
H3       0.33984    0.56197    0.32288   1.00
H3       0.37795    0.44425    0.32820   1.00
H3       0.40282    0.51713    0.32614   1.00
C4       0.25012    0.75016    0.02085   1.00
C4       0.24988    0.74984    -0.02085   1.00
C3a      0.28466    0.75868    0.04254   1.00
C3       0.24771    0.78490    -0.04232   1.00
C3       0.21592    0.74212    0.04232   1.00
C3a      0.25170    0.71431    -0.04254   1.00
C2       0.24994    0.75005    0.10512   1.00
C2       0.24993    0.75005    -0.10512   1.00
C3       0.28404    0.75841    0.08405   1.00
C3       0.24785    0.78496    -0.08363   1.00
C3       0.21591    0.74196    0.08363   1.00
C3       0.25177    0.71498    -0.08405   1.00
C5       0.32287    0.76758    0.02228   1.00
H1       0.24629    0.81246    -0.02691   1.00
H1       0.31041    0.76471    0.10021   1.00
H1       0.24637    0.81250    -0.09901   1.00
H1       0.18912    0.73542    0.09901   1.00
H1       0.25336    0.68791    -0.10021   1.00
C5       0.25421    0.67515    -0.02228   1.00
H1       0.18913    0.73552    0.02691   1.00
H2       0.26645    0.65304    -0.04256   1.00
H2       0.27480    0.67677    0.00269   1.00
H2       0.34758    0.76225    0.04256   1.00
H2       0.32727    0.74740    -0.00269   1.00
N1       0.21579    0.66251    -0.00857   1.00
C6       0.18516    0.65300    -0.03073   1.00
C6       0.20499    0.65721    0.02846   1.00
C6       0.15422    0.64198    -0.00759   1.00
C6       0.16684    0.64465    0.03005   1.00
H3       0.18503    0.65429    -0.06197   1.00
H3       0.22358    0.66244    0.05300   1.00
H3       0.12568    0.63298    -0.01713   1.00
H3       0.15008    0.63819    0.05575   1.00
N1       0.32388    0.80801    0.00857   1.00
C6       0.32584    0.81989    -0.02846   1.00
C6       0.32414    0.84009    0.03073   1.00
C6       0.32685    0.86004    -0.03005   1.00
C6       0.32576    0.87289    0.00759   1.00
H3       0.32620    0.80058    -0.05300   1.00
H3       0.32288    0.83984    0.06197   1.00
H3       0.32820    0.87795    -0.05575   1.00
H3       0.32614    0.90282    0.01713   1.00
C4       0.75012    0.24984    0.47915   1.00
C4       0.74988    0.25016    0.52085   1.00
C3a      0.78466    0.24132    0.45746   1.00
C3       0.74771    0.21510    0.54232   1.00
C3       0.71592    0.25788    0.45768   1.00
C3a      0.75170    0.28569    0.54254   1.00
C2       0.74994    0.24995    0.39488   1.00
C2       0.74993    0.24995    0.60512   1.00
C3       0.78404    0.24159    0.41595   1.00
C3       0.74785    0.21504    0.58363   1.00
C3       0.71591    0.25804    0.41637   1.00
C3       0.75177    0.28502    0.58405   1.00
C5       0.82287    0.23242    0.47772   1.00
H1       0.74629    0.18754    0.52691   1.00
H1       0.81041    0.23529    0.39979   1.00
H1       0.74637    0.18750    0.59901   1.00
H1       0.68912    0.26458    0.40099   1.00
H1       0.75336    0.31209    0.60021   1.00
C5       0.75421    0.32485    0.52228   1.00
H1       0.68913    0.26448    0.47309   1.00
H2       0.76645    0.34696    0.54256   1.00
H2       0.77480    0.32323    0.49731   1.00
H2       0.84758    0.23775    0.45744   1.00
H2       0.82727    0.25260    0.50269   1.00
N1       0.71579    0.33749    0.50857   1.00
C6       0.68516    0.34700    0.53073   1.00
C6       0.70499    0.34279    0.47154   1.00
C6       0.65422    0.35802    0.50759   1.00
C6       0.66684    0.35535    0.46995   1.00
H3       0.68503    0.34571    0.56197   1.00
H3       0.72358    0.33756    0.44700   1.00
H3       0.62568    0.36702    0.51713   1.00
H3       0.65008    0.36181    0.44425   1.00
N1       0.82388    0.19199    0.49143   1.00
C6       0.82584    0.18011    0.52846   1.00
C6       0.82414    0.15991    0.46927   1.00
C6       0.82685    0.13996    0.53005   1.00
C6       0.82576    0.12711    0.49241   1.00
H3       0.82620    0.19942    0.55300   1.00
H3       0.82288    0.16016    0.43803   1.00
H3       0.82820    0.12205    0.55575   1.00
H3       0.82614    0.09718    0.48287   1.00
C4       0.74984    0.47915    0.25012   1.00
C4       0.75016    0.52085    0.24988   1.00
C3a      0.74132    0.45746    0.28466   1.00
C3       0.71510    0.54232    0.24771   1.00
C3       0.75788    0.45768    0.21592   1.00
C3a      0.78569    0.54254    0.25170   1.00
C2       0.74995    0.39488    0.24994   1.00
C2       0.74995    0.60512    0.24993   1.00
C3       0.74159    0.41595    0.28404   1.00
C3       0.71504    0.58363    0.24785   1.00
C3       0.75804    0.41637    0.21591   1.00
C3       0.78502    0.58405    0.25177   1.00
C5       0.73242    0.47772    0.32287   1.00
H1       0.68754    0.52691    0.24629   1.00
H1       0.73529    0.39979    0.31041   1.00
H1       0.68750    0.59901    0.24637   1.00
H1       0.76458    0.40099    0.18912   1.00
H1       0.81209    0.60021    0.25336   1.00
C5       0.82485    0.52228    0.25421   1.00
H1       0.76448    0.47309    0.18913   1.00
H2       0.84696    0.54256    0.26645   1.00
H2       0.82323    0.49731    0.27480   1.00
H2       0.73775    0.45744    0.34758   1.00
H2       0.75260    0.50269    0.32727   1.00
N1       0.83749    0.50857    0.21579   1.00
C6       0.84700    0.53073    0.18516   1.00
C6       0.84279    0.47154    0.20499   1.00
C6       0.85802    0.50759    0.15422   1.00
C6       0.85535    0.46995    0.16684   1.00
H3       0.84571    0.56197    0.18503   1.00
H3       0.83756    0.44700    0.22358   1.00
H3       0.86702    0.51713    0.12568   1.00
H3       0.86181    0.44425    0.15008   1.00
N1       0.69199    0.49143    0.32388   1.00
C6       0.68011    0.52846    0.32584   1.00
C6       0.65991    0.46927    0.32414   1.00
C6       0.63996    0.53005    0.32685   1.00
C6       0.62711    0.49241    0.32576   1.00
H3       0.69942    0.55300    0.32620   1.00
H3       0.66016    0.43803    0.32288   1.00
H3       0.62205    0.55575    0.32820   1.00
H3       0.59718    0.48287    0.32614   1.00
C4       0.52085    0.25012    0.25016   1.00
C4       0.47915    0.24988    0.24984   1.00
C3a      0.54254    0.28466    0.25868   1.00
C3       0.45768    0.24771    0.28490   1.00
C3       0.54232    0.21592    0.24212   1.00
C3a      0.45746    0.25170    0.21431   1.00
C2       0.60512    0.24994    0.25005   1.00
C2       0.39488    0.24993    0.25005   1.00
C3       0.58405    0.28404    0.25841   1.00
C3       0.41637    0.24785    0.28496   1.00
C3       0.58363    0.21591    0.24196   1.00
C3       0.41595    0.25177    0.21498   1.00
C5       0.52228    0.32287    0.26758   1.00
H1       0.47309    0.24629    0.31246   1.00
H1       0.60021    0.31041    0.26471   1.00
H1       0.40099    0.24637    0.31250   1.00
H1       0.59901    0.18912    0.23542   1.00
H1       0.39979    0.25336    0.18791   1.00
C5       0.47772    0.25421    0.17515   1.00
H1       0.52691    0.18913    0.23552   1.00
H2       0.45744    0.26645    0.15304   1.00
H2       0.50269    0.27480    0.17677   1.00
H2       0.54256    0.34758    0.26225   1.00
H2       0.49731    0.32727    0.24740   1.00
N1       0.49143    0.21579    0.16251   1.00
C6       0.46927    0.18516    0.15300   1.00
C6       0.52846    0.20499    0.15721   1.00
C6       0.49241    0.15422    0.14198   1.00
C6       0.53005    0.16684    0.14465   1.00
H3       0.43803    0.18503    0.15429   1.00
H3       0.55300    0.22358    0.16244   1.00
H3       0.48287    0.12568    0.13298   1.00
H3       0.55575    0.15008    0.13819   1.00
N1       0.50857    0.32388    0.30801   1.00
C6       0.47154    0.32584    0.31989   1.00
C6       0.53073    0.32414    0.34009   1.00
C6       0.46995    0.32685    0.36004   1.00
C6       0.50759    0.32576    0.37289   1.00
H3       0.44700    0.32620    0.30058   1.00
H3       0.56197    0.32288    0.33984   1.00
H3       0.44425    0.32820    0.37795   1.00
H3       0.51713    0.32614    0.40282   1.00
C4       0.97915    0.25012    0.24984   1.00
C4       1.02085    0.24988    0.25016   1.00
C3a      0.95746    0.28466    0.24132   1.00
C3       1.04232    0.24771    0.21510   1.00
C3       0.95768    0.21592    0.25788   1.00
C3a      1.04254    0.25170    0.28569   1.00
C2       0.89488    0.24994    0.24995   1.00
C2       1.10512    0.24993    0.24995   1.00
C3       0.91595    0.28404    0.24159   1.00
C3       1.08363    0.24785    0.21504   1.00
C3       0.91637    0.21591    0.25804   1.00
C3       1.08405    0.25177    0.28502   1.00
C5       0.97772    0.32287    0.23242   1.00
H1       1.02691    0.24629    0.18754   1.00
H1       0.89979    0.31041    0.23529   1.00
H1       1.09901    0.24637    0.18750   1.00
H1       0.90099    0.18912    0.26458   1.00
H1       1.10021    0.25336    0.31209   1.00
C5       1.02228    0.25421    0.32485   1.00
H1       0.97309    0.18913    0.26448   1.00
H2       1.04256    0.26645    0.34696   1.00
H2       0.99731    0.27480    0.32323   1.00
H2       0.95744    0.34758    0.23775   1.00
H2       1.00269    0.32727    0.25260   1.00
N1       1.00857    0.21579    0.33749   1.00
C6       1.03073    0.18516    0.34700   1.00
C6       0.97154    0.20499    0.34279   1.00
C6       1.00759    0.15422    0.35802   1.00
C6       0.96995    0.16684    0.35535   1.00
H3       1.06197    0.18503    0.34571   1.00
H3       0.94700    0.22358    0.33756   1.00
H3       1.01713    0.12568    0.36702   1.00
H3       0.94425    0.15008    0.36181   1.00
N1       0.99143    0.32388    0.19199   1.00
C6       1.02846    0.32584    0.18011   1.00
C6       0.96927    0.32414    0.15991   1.00
C6       1.03005    0.32685    0.13996   1.00
C6       0.99241    0.32576    0.12711   1.00
H3       1.05300    0.32620    0.19942   1.00
H3       0.93803    0.32288    0.16016   1.00
H3       1.05575    0.32820    0.12205   1.00
H3       0.98287    0.32614    0.09718   1.00
C4       0.75016    0.02085    0.25012   1.00
C4       0.74984    -0.02085   0.24988   1.00
C3a      0.75868    0.04254    0.28466   1.00
C3       0.78490    -0.04232   0.24771   1.00
C3       0.74212    0.04232    0.21592   1.00
C3a      0.71431    -0.04254   0.25170   1.00
C2       0.75005    0.10512    0.24994   1.00
C2       0.75005    -0.10512   0.24993   1.00
C3       0.75841    0.08405    0.28404   1.00
C3       0.78496    -0.08363   0.24785   1.00
C3       0.74196    0.08363    0.21591   1.00
C3       0.71498    -0.08405   0.25177   1.00
C5       0.76758    0.02228    0.32287   1.00
H1       0.81246    -0.02691   0.24629   1.00
H1       0.76471    0.10021    0.31041   1.00
H1       0.81250    -0.09901   0.24637   1.00
H1       0.73542    0.09901    0.18912   1.00
H1       0.68791    -0.10021   0.25336   1.00
C5       0.67515    -0.02228   0.25421   1.00
H1       0.73552    0.02691    0.18913   1.00
H2       0.65304    -0.04256   0.26645   1.00
H2       0.67677    0.00269    0.27480   1.00
H2       0.76225    0.04256    0.34758   1.00
H2       0.74740    -0.00269   0.32727   1.00
N1       0.66251    -0.00857   0.21579   1.00
C6       0.65300    -0.03073   0.18516   1.00
C6       0.65721    0.02846    0.20499   1.00
C6       0.64198    -0.00759   0.15422   1.00
C6       0.64465    0.03005    0.16684   1.00
H3       0.65429    -0.06197   0.18503   1.00
H3       0.66244    0.05300    0.22358   1.00
H3       0.63298    -0.01713   0.12568   1.00
H3       0.63819    0.05575    0.15008   1.00
N1       0.80801    0.00857    0.32388   1.00
C6       0.81989    -0.02846   0.32584   1.00
C6       0.84009    0.03073    0.32414   1.00
C6       0.86004    -0.03005   0.32685   1.00
C6       0.87289    0.00759    0.32576   1.00
H3       0.80058    -0.05300   0.32620   1.00
H3       0.83984    0.06197    0.32288   1.00
H3       0.87795    -0.05575   0.32820   1.00
H3       0.90282    0.01713    0.32614   1.00
C4       0.75012    0.25016    0.02085   1.00
C4       0.74988    0.24984    -0.02085   1.00
C3a      0.78466    0.25868    0.04254   1.00
C3       0.74771    0.28490    -0.04232   1.00
C3       0.71592    0.24212    0.04232   1.00
C3a      0.75170    0.21431    -0.04254   1.00
C2       0.74994    0.25005    0.10512   1.00
C2       0.74993    0.25005    -0.10512   1.00
C3       0.78404    0.25841    0.08405   1.00
C3       0.74785    0.28496    -0.08363   1.00
C3       0.71591    0.24196    0.08363   1.00
C3       0.75177    0.21498    -0.08405   1.00
C5       0.82287    0.26758    0.02228   1.00
H1       0.74629    0.31246    -0.02691   1.00
H1       0.81041    0.26471    0.10021   1.00
H1       0.74637    0.31250    -0.09901   1.00
H1       0.68912    0.23542    0.09901   1.00
H1       0.75336    0.18791    -0.10021   1.00
C5       0.75421    0.17515    -0.02228   1.00
H1       0.68913    0.23552    0.02691   1.00
H2       0.76645    0.15304    -0.04256   1.00
H2       0.77480    0.17677    0.00269   1.00
H2       0.84758    0.26225    0.04256   1.00
H2       0.82727    0.24740    -0.00269   1.00
N1       0.71579    0.16251    -0.00857   1.00
C6       0.68516    0.15300    -0.03073   1.00
C6       0.70499    0.15721    0.02846   1.00
C6       0.65422    0.14198    -0.00759   1.00
C6       0.66684    0.14465    0.03005   1.00
H3       0.68503    0.15429    -0.06197   1.00
H3       0.72358    0.16244    0.05300   1.00
H3       0.62568    0.13298    -0.01713   1.00
H3       0.65008    0.13819    0.05575   1.00
N1       0.82388    0.30801    0.00857   1.00
C6       0.82584    0.31989    -0.02846   1.00
C6       0.82414    0.34009    0.03073   1.00
C6       0.82685    0.36004    -0.03005   1.00
C6       0.82576    0.37289    0.00759   1.00
H3       0.82620    0.30058    -0.05300   1.00
H3       0.82288    0.33984    0.06197   1.00
H3       0.82820    0.37795    -0.05575   1.00
H3       0.82614    0.40282    0.01713   1.00
C4       1.00012    0.99984    1.22915   1.00
C4       0.99988    1.00016    1.27085   1.00
C3a      1.03466    0.99132    1.20746   1.00
C3       0.99771    0.96510    1.29232   1.00
C3       0.96592    1.00788    1.20768   1.00
C3a      1.00170    1.03569    1.29254   1.00
C2       0.99994    0.99995    1.14488   1.00
C2       0.99993    0.99995    1.35512   1.00
C3       1.03404    0.99159    1.16595   1.00
C3       0.99785    0.96504    1.33363   1.00
C3       0.96591    1.00804    1.16637   1.00
C3       1.00177    1.03502    1.33405   1.00
C5       1.07287    0.98242    1.22772   1.00
H1       0.99629    0.93754    1.27691   1.00
H1       1.06041    0.98529    1.14979   1.00
H1       0.99637    0.93750    1.34901   1.00
H1       0.93912    1.01458    1.15099   1.00
H1       1.00336    1.06209    1.35021   1.00
C5       1.00421    1.07485    1.27228   1.00
H1       0.93913    1.01448    1.22309   1.00
H2       1.01645    1.09696    1.29256   1.00
H2       1.02480    1.07323    1.24731   1.00
H2       1.09758    0.98775    1.20744   1.00
H2       1.07727    1.00260    1.25269   1.00
N1       0.96579    1.08749    1.25857   1.00
C6       0.93516    1.09700    1.28073   1.00
C6       0.95499    1.09279    1.22154   1.00
C6       0.90422    1.10802    1.25759   1.00
C6       0.91684    1.10535    1.21995   1.00
H3       0.93503    1.09571    1.31197   1.00
H3       0.97358    1.08756    1.19700   1.00
H3       0.87568    1.11702    1.26713   1.00
H3       0.90008    1.11181    1.19425   1.00
N1       1.07388    0.94199    1.24143   1.00
C6       1.07584    0.93011    1.27846   1.00
C6       1.07414    0.90991    1.21927   1.00
C6       1.07685    0.88996    1.28005   1.00
C6       1.07576    0.87711    1.24241   1.00
H3       1.07620    0.94942    1.30300   1.00
H3       1.07288    0.91016    1.18803   1.00
H3       1.07820    0.87205    1.30575   1.00
H3       1.07614    0.84718    1.23287   1.00
C4       0.99984    1.22915    1.00012   1.00
C4       1.00016    1.27085    0.99988   1.00
C3a      0.99132    1.20746    1.03466   1.00
C3       0.96510    1.29232    0.99771   1.00
C3       1.00788    1.20768    0.96592   1.00
C3a      1.03569    1.29254    1.00170   1.00
C2       0.99995    1.14488    0.99994   1.00
C2       0.99995    1.35512    0.99993   1.00
C3       0.99159    1.16595    1.03404   1.00
C3       0.96504    1.33363    0.99785   1.00
C3       1.00804    1.16637    0.96591   1.00
C3       1.03502    1.33405    1.00177   1.00
C5       0.98242    1.22772    1.07287   1.00
H1       0.93754    1.27691    0.99629   1.00
H1       0.98529    1.14979    1.06041   1.00
H1       0.93750    1.34901    0.99637   1.00
H1       1.01458    1.15099    0.93912   1.00
H1       1.06209    1.35021    1.00336   1.00
C5       1.07485    1.27228    1.00421   1.00
H1       1.01448    1.22309    0.93913   1.00
H2       1.09696    1.29256    1.01645   1.00
H2       1.07323    1.24731    1.02480   1.00
H2       0.98775    1.20744    1.09758   1.00
H2       1.00260    1.25269    1.07727   1.00
N1       1.08749    1.25857    0.96579   1.00
C6       1.09700    1.28073    0.93516   1.00
C6       1.09279    1.22154    0.95499   1.00
C6       1.10802    1.25759    0.90422   1.00
C6       1.10535    1.21995    0.91684   1.00
H3       1.09571    1.31197    0.93503   1.00
H3       1.08756    1.19700    0.97358   1.00
H3       1.11702    1.26713    0.87568   1.00
H3       1.11181    1.19425    0.90008   1.00
N1       0.94199    1.24143    1.07388   1.00
C6       0.93011    1.27846    1.07584   1.00
C6       0.90991    1.21927    1.07414   1.00
C6       0.88996    1.28005    1.07685   1.00
C6       0.87711    1.24241    1.07576   1.00
H3       0.94942    1.30300    1.07620   1.00
H3       0.91016    1.18803    1.07288   1.00
H3       0.87205    1.30575    1.07820   1.00
H3       0.84718    1.23287    1.07614   1.00
C4       0.77085    1.00012    1.00016   1.00
C4       0.72915    0.99988    0.99984   1.00
C3a      0.79254    1.03466    1.00868   1.00
C3       0.70768    0.99771    1.03490   1.00
C3       0.79232    0.96592    0.99212   1.00
C3a      0.70746    1.00170    0.96431   1.00
C2       0.85512    0.99994    1.00005   1.00
C2       0.64488    0.99993    1.00005   1.00
C3       0.83405    1.03404    1.00841   1.00
C3       0.66637    0.99785    1.03496   1.00
C3       0.83363    0.96591    0.99196   1.00
C3       0.66595    1.00177    0.96498   1.00
C5       0.77228    1.07287    1.01758   1.00
H1       0.72309    0.99629    1.06246   1.00
H1       0.85021    1.06041    1.01471   1.00
H1       0.65099    0.99637    1.06250   1.00
H1       0.84901    0.93912    0.98542   1.00
H1       0.64979    1.00336    0.93791   1.00
C5       0.72772    1.00421    0.92515   1.00
H1       0.77691    0.93913    0.98552   1.00
H2       0.70744    1.01645    0.90304   1.00
H2       0.75269    1.02480    0.92677   1.00
H2       0.79256    1.09758    1.01225   1.00
H2       0.74731    1.07727    0.99740   1.00
N1       0.74143    0.96579    0.91251   1.00
C6       0.71927    0.93516    0.90300   1.00
C6       0.77846    0.95499    0.90721   1.00
C6       0.74241    0.90422    0.89198   1.00
C6       0.78005    0.91684    0.89465   1.00
H3       0.68803    0.93503    0.90429   1.00
H3       0.80300    0.97358    0.91244   1.00
H3       0.73287    0.87568    0.88298   1.00
H3       0.80575    0.90008    0.88819   1.00
N1       0.75857    1.07388    1.05801   1.00
C6       0.72154    1.07584    1.06989   1.00
C6       0.78073    1.07414    1.09009   1.00
C6       0.71995    1.07685    1.11004   1.00
C6       0.75759    1.07576    1.12289   1.00
H3       0.69700    1.07620    1.05058   1.00
H3       0.81197    1.07288    1.08984   1.00
H3       0.69425    1.07820    1.12795   1.00
H3       0.76713    1.07614    1.15282   1.00
C4       1.22915    1.00012    0.99984   1.00
C4       1.27085    0.99988    1.00016   1.00
C3a      1.20746    1.03466    0.99132   1.00
C3       1.29232    0.99771    0.96510   1.00
C3       1.20768    0.96592    1.00788   1.00
C3a      1.29254    1.00170    1.03569   1.00
C2       1.14488    0.99994    0.99995   1.00
C2       1.35512    0.99993    0.99995   1.00
C3       1.16595    1.03404    0.99159   1.00
C3       1.33363    0.99785    0.96504   1.00
C3       1.16637    0.96591    1.00804   1.00
C3       1.33405    1.00177    1.03502   1.00
C5       1.22772    1.07287    0.98242   1.00
H1       1.27691    0.99629    0.93754   1.00
H1       1.14979    1.06041    0.98529   1.00
H1       1.34901    0.99637    0.93750   1.00
H1       1.15099    0.93912    1.01458   1.00
H1       1.35021    1.00336    1.06209   1.00
C5       1.27228    1.00421    1.07485   1.00
H1       1.22309    0.93913    1.01448   1.00
H2       1.29256    1.01645    1.09696   1.00
H2       1.24731    1.02480    1.07323   1.00
H2       1.20744    1.09758    0.98775   1.00
H2       1.25269    1.07727    1.00260   1.00
N1       1.25857    0.96579    1.08749   1.00
C6       1.28073    0.93516    1.09700   1.00
C6       1.22154    0.95499    1.09279   1.00
C6       1.25759    0.90422    1.10802   1.00
C6       1.21995    0.91684    1.10535   1.00
H3       1.31197    0.93503    1.09571   1.00
H3       1.19700    0.97358    1.08756   1.00
H3       1.26713    0.87568    1.11702   1.00
H3       1.19425    0.90008    1.11181   1.00
N1       1.24143    1.07388    0.94199   1.00
C6       1.27846    1.07584    0.93011   1.00
C6       1.21927    1.07414    0.90991   1.00
C6       1.28005    1.07685    0.88996   1.00
C6       1.24241    1.07576    0.87711   1.00
H3       1.30300    1.07620    0.94942   1.00
H3       1.18803    1.07288    0.91016   1.00
H3       1.30575    1.07820    0.87205   1.00
H3       1.23287    1.07614    0.84718   1.00
C4       1.00016    0.77085    1.00012   1.00
C4       0.99984    0.72915    0.99988   1.00
C3a      1.00868    0.79254    1.03466   1.00
C3       1.03490    0.70768    0.99771   1.00
C3       0.99212    0.79232    0.96592   1.00
C3a      0.96431    0.70746    1.00170   1.00
C2       1.00005    0.85512    0.99994   1.00
C2       1.00005    0.64488    0.99993   1.00
C3       1.00841    0.83405    1.03404   1.00
C3       1.03496    0.66637    0.99785   1.00
C3       0.99196    0.83363    0.96591   1.00
C3       0.96498    0.66595    1.00177   1.00
C5       1.01758    0.77228    1.07287   1.00
H1       1.06246    0.72309    0.99629   1.00
H1       1.01471    0.85021    1.06041   1.00
H1       1.06250    0.65099    0.99637   1.00
H1       0.98542    0.84901    0.93912   1.00
H1       0.93791    0.64979    1.00336   1.00
C5       0.92515    0.72772    1.00421   1.00
H1       0.98552    0.77691    0.93913   1.00
H2       0.90304    0.70744    1.01645   1.00
H2       0.92677    0.75269    1.02480   1.00
H2       1.01225    0.79256    1.09758   1.00
H2       0.99740    0.74731    1.07727   1.00
N1       0.91251    0.74143    0.96579   1.00
C6       0.90300    0.71927    0.93516   1.00
C6       0.90721    0.77846    0.95499   1.00
C6       0.89198    0.74241    0.90422   1.00
C6       0.89465    0.78005    0.91684   1.00
H3       0.90429    0.68803    0.93503   1.00
H3       0.91244    0.80300    0.97358   1.00
H3       0.88298    0.73287    0.87568   1.00
H3       0.88819    0.80575    0.90008   1.00
N1       1.05801    0.75857    1.07388   1.00
C6       1.06989    0.72154    1.07584   1.00
C6       1.09009    0.78073    1.07414   1.00
C6       1.11004    0.71995    1.07685   1.00
C6       1.12289    0.75759    1.07576   1.00
H3       1.05058    0.69700    1.07620   1.00
H3       1.08984    0.81197    1.07288   1.00
H3       1.12795    0.69425    1.07820   1.00
H3       1.15282    0.76713    1.07614   1.00
C4       1.00012    1.00016    0.77085   1.00
C4       0.99988    0.99984    0.72915   1.00
C3a      1.03466    1.00868    0.79254   1.00
C3       0.99771    1.03490    0.70768   1.00
C3       0.96592    0.99212    0.79232   1.00
C3a      1.00170    0.96431    0.70746   1.00
C2       0.99994    1.00005    0.85512   1.00
C2       0.99993    1.00005    0.64488   1.00
C3       1.03404    1.00841    0.83405   1.00
C3       0.99785    1.03496    0.66637   1.00
C3       0.96591    0.99196    0.83363   1.00
C3       1.00177    0.96498    0.66595   1.00
C5       1.07287    1.01758    0.77228   1.00
H1       0.99629    1.06246    0.72309   1.00
H1       1.06041    1.01471    0.85021   1.00
H1       0.99637    1.06250    0.65099   1.00
H1       0.93912    0.98542    0.84901   1.00
H1       1.00336    0.93791    0.64979   1.00
C5       1.00421    0.92515    0.72772   1.00
H1       0.93913    0.98552    0.77691   1.00
H2       1.01645    0.90304    0.70744   1.00
H2       1.02480    0.92677    0.75269   1.00
H2       1.09758    1.01225    0.79256   1.00
H2       1.07727    0.99740    0.74731   1.00
N1       0.96579    0.91251    0.74143   1.00
C6       0.93516    0.90300    0.71927   1.00
C6       0.95499    0.90721    0.77846   1.00
C6       0.90422    0.89198    0.74241   1.00
C6       0.91684    0.89465    0.78005   1.00
H3       0.93503    0.90429    0.68803   1.00
H3       0.97358    0.91244    0.80300   1.00
H3       0.87568    0.88298    0.73287   1.00
H3       0.90008    0.88819    0.80575   1.00
N1       1.07388    1.05801    0.75857   1.00
C6       1.07584    1.06989    0.72154   1.00
C6       1.07414    1.09009    0.78073   1.00
C6       1.07685    1.11004    0.71995   1.00
C6       1.07576    1.12289    0.75759   1.00
H3       1.07620    1.05058    0.69700   1.00
H3       1.07288    1.08984    0.81197   1.00
H3       1.07820    1.12795    0.69425   1.00
H3       1.07614    1.15282    0.76713   1.00
C4       0.50012    0.49984    1.22915   1.00
C4       0.49988    0.50016    1.27085   1.00
C3a      0.53466    0.49132    1.20746   1.00
C3       0.49771    0.46510    1.29232   1.00
C3       0.46592    0.50788    1.20768   1.00
C3a      0.50170    0.53569    1.29254   1.00
C2       0.49994    0.49995    1.14488   1.00
C2       0.49993    0.49995    1.35512   1.00
C3       0.53404    0.49159    1.16595   1.00
C3       0.49785    0.46504    1.33363   1.00
C3       0.46591    0.50804    1.16637   1.00
C3       0.50177    0.53502    1.33405   1.00
C5       0.57287    0.48242    1.22772   1.00
H1       0.49629    0.43754    1.27691   1.00
H1       0.56041    0.48529    1.14979   1.00
H1       0.49637    0.43750    1.34901   1.00
H1       0.43912    0.51458    1.15099   1.00
H1       0.50336    0.56209    1.35021   1.00
C5       0.50421    0.57485    1.27228   1.00
H1       0.43913    0.51448    1.22309   1.00
H2       0.51645    0.59696    1.29256   1.00
H2       0.52480    0.57323    1.24731   1.00
H2       0.59758    0.48775    1.20744   1.00
H2       0.57727    0.50260    1.25269   1.00
N1       0.46579    0.58749    1.25857   1.00
C6       0.43516    0.59700    1.28073   1.00
C6       0.45499    0.59279    1.22154   1.00
C6       0.40422    0.60802    1.25759   1.00
C6       0.41684    0.60535    1.21995   1.00
H3       0.43503    0.59571    1.31197   1.00
H3       0.47358    0.58756    1.19700   1.00
H3       0.37568    0.61702    1.26713   1.00
H3       0.40008    0.61181    1.19425   1.00
N1       0.57388    0.44199    1.24143   1.00
C6       0.57584    0.43011    1.27846   1.00
C6       0.57414    0.40991    1.21927   1.00
C6       0.57685    0.38996    1.28005   1.00
C6       0.57576    0.37711    1.24241   1.00
H3       0.57620    0.44942    1.30300   1.00
H3       0.57288    0.41016    1.18803   1.00
H3       0.57820    0.37205    1.30575   1.00
H3       0.57614    0.34718    1.23287   1.00
C4       0.49984    0.72915    1.00012   1.00
C4       0.50016    0.77085    0.99988   1.00
C3a      0.49132    0.70746    1.03466   1.00
C3       0.46510    0.79232    0.99771   1.00
C3       0.50788    0.70768    0.96592   1.00
C3a      0.53569    0.79254    1.00170   1.00
C2       0.49995    0.64488    0.99994   1.00
C2       0.49995    0.85512    0.99993   1.00
C3       0.49159    0.66595    1.03404   1.00
C3       0.46504    0.83363    0.99785   1.00
C3       0.50804    0.66637    0.96591   1.00
C3       0.53502    0.83405    1.00177   1.00
C5       0.48242    0.72772    1.07287   1.00
H1       0.43754    0.77691    0.99629   1.00
H1       0.48529    0.64979    1.06041   1.00
H1       0.43750    0.84901    0.99637   1.00
H1       0.51458    0.65099    0.93912   1.00
H1       0.56209    0.85021    1.00336   1.00
C5       0.57485    0.77228    1.00421   1.00
H1       0.51448    0.72309    0.93913   1.00
H2       0.59696    0.79256    1.01645   1.00
H2       0.57323    0.74731    1.02480   1.00
H2       0.48775    0.70744    1.09758   1.00
H2       0.50260    0.75269    1.07727   1.00
N1       0.58749    0.75857    0.96579   1.00
C6       0.59700    0.78073    0.93516   1.00
C6       0.59279    0.72154    0.95499   1.00
C6       0.60802    0.75759    0.90422   1.00
C6       0.60535    0.71995    0.91684   1.00
H3       0.59571    0.81197    0.93503   1.00
H3       0.58756    0.69700    0.97358   1.00
H3       0.61702    0.76713    0.87568   1.00
H3       0.61181    0.69425    0.90008   1.00
N1       0.44199    0.74143    1.07388   1.00
C6       0.43011    0.77846    1.07584   1.00
C6       0.40991    0.71927    1.07414   1.00
C6       0.38996    0.78005    1.07685   1.00
C6       0.37711    0.74241    1.07576   1.00
H3       0.44942    0.80300    1.07620   1.00
H3       0.41016    0.68803    1.07288   1.00
H3       0.37205    0.80575    1.07820   1.00
H3       0.34718    0.73287    1.07614   1.00
C4       0.27085    0.50012    1.00016   1.00
C4       0.22915    0.49988    0.99984   1.00
C3a      0.29254    0.53466    1.00868   1.00
C3       0.20768    0.49771    1.03490   1.00
C3       0.29232    0.46592    0.99212   1.00
C3a      0.20746    0.50170    0.96431   1.00
C2       0.35512    0.49994    1.00005   1.00
C2       0.14488    0.49993    1.00005   1.00
C3       0.33405    0.53404    1.00841   1.00
C3       0.16637    0.49785    1.03496   1.00
C3       0.33363    0.46591    0.99196   1.00
C3       0.16595    0.50177    0.96498   1.00
C5       0.27228    0.57287    1.01758   1.00
H1       0.22309    0.49629    1.06246   1.00
H1       0.35021    0.56041    1.01471   1.00
H1       0.15099    0.49637    1.06250   1.00
H1       0.34901    0.43912    0.98542   1.00
H1       0.14979    0.50336    0.93791   1.00
C5       0.22772    0.50421    0.92515   1.00
H1       0.27691    0.43913    0.98552   1.00
H2       0.20744    0.51645    0.90304   1.00
H2       0.25269    0.52480    0.92677   1.00
H2       0.29256    0.59758    1.01225   1.00
H2       0.24731    0.57727    0.99740   1.00
N1       0.24143    0.46579    0.91251   1.00
C6       0.21927    0.43516    0.90300   1.00
C6       0.27846    0.45499    0.90721   1.00
C6       0.24241    0.40422    0.89198   1.00
C6       0.28005    0.41684    0.89465   1.00
H3       0.18803    0.43503    0.90429   1.00
H3       0.30300    0.47358    0.91244   1.00
H3       0.23287    0.37568    0.88298   1.00
H3       0.30575    0.40008    0.88819   1.00
N1       0.25857    0.57388    1.05801   1.00
C6       0.22154    0.57584    1.06989   1.00
C6       0.28073    0.57414    1.09009   1.00
C6       0.21995    0.57685    1.11004   1.00
C6       0.25759    0.57576    1.12289   1.00
H3       0.19700    0.57620    1.05058   1.00
H3       0.31197    0.57288    1.08984   1.00
H3       0.19425    0.57820    1.12795   1.00
H3       0.26713    0.57614    1.15282   1.00
C4       0.72915    0.50012    0.99984   1.00
C4       0.77085    0.49988    1.00016   1.00
C3a      0.70746    0.53466    0.99132   1.00
C3       0.79232    0.49771    0.96510   1.00
C3       0.70768    0.46592    1.00788   1.00
C3a      0.79254    0.50170    1.03569   1.00
C2       0.64488    0.49994    0.99995   1.00
C2       0.85512    0.49993    0.99995   1.00
C3       0.66595    0.53404    0.99159   1.00
C3       0.83363    0.49785    0.96504   1.00
C3       0.66637    0.46591    1.00804   1.00
C3       0.83405    0.50177    1.03502   1.00
C5       0.72772    0.57287    0.98242   1.00
H1       0.77691    0.49629    0.93754   1.00
H1       0.64979    0.56041    0.98529   1.00
H1       0.84901    0.49637    0.93750   1.00
H1       0.65099    0.43912    1.01458   1.00
H1       0.85021    0.50336    1.06209   1.00
C5       0.77228    0.50421    1.07485   1.00
H1       0.72309    0.43913    1.01448   1.00
H2       0.79256    0.51645    1.09696   1.00
H2       0.74731    0.52480    1.07323   1.00
H2       0.70744    0.59758    0.98775   1.00
H2       0.75269    0.57727    1.00260   1.00
N1       0.75857    0.46579    1.08749   1.00
C6       0.78073    0.43516    1.09700   1.00
C6       0.72154    0.45499    1.09279   1.00
C6       0.75759    0.40422    1.10802   1.00
C6       0.71995    0.41684    1.10535   1.00
H3       0.81197    0.43503    1.09571   1.00
H3       0.69700    0.47358    1.08756   1.00
H3       0.76713    0.37568    1.11702   1.00
H3       0.69425    0.40008    1.11181   1.00
N1       0.74143    0.57388    0.94199   1.00
C6       0.77846    0.57584    0.93011   1.00
C6       0.71927    0.57414    0.90991   1.00
C6       0.78005    0.57685    0.88996   1.00
C6       0.74241    0.57576    0.87711   1.00
H3       0.80300    0.57620    0.94942   1.00
H3       0.68803    0.57288    0.91016   1.00
H3       0.80575    0.57820    0.87205   1.00
H3       0.73287    0.57614    0.84718   1.00
C4       0.50016    0.27085    1.00012   1.00
C4       0.49984    0.22915    0.99988   1.00
C3a      0.50868    0.29254    1.03466   1.00
C3       0.53490    0.20768    0.99771   1.00
C3       0.49212    0.29232    0.96592   1.00
C3a      0.46431    0.20746    1.00170   1.00
C2       0.50005    0.35512    0.99994   1.00
C2       0.50005    0.14488    0.99993   1.00
C3       0.50841    0.33405    1.03404   1.00
C3       0.53496    0.16637    0.99785   1.00
C3       0.49196    0.33363    0.96591   1.00
C3       0.46498    0.16595    1.00177   1.00
C5       0.51758    0.27228    1.07287   1.00
H1       0.56246    0.22309    0.99629   1.00
H1       0.51471    0.35021    1.06041   1.00
H1       0.56250    0.15099    0.99637   1.00
H1       0.48542    0.34901    0.93912   1.00
H1       0.43791    0.14979    1.00336   1.00
C5       0.42515    0.22772    1.00421   1.00
H1       0.48552    0.27691    0.93913   1.00
H2       0.40304    0.20744    1.01645   1.00
H2       0.42677    0.25269    1.02480   1.00
H2       0.51225    0.29256    1.09758   1.00
H2       0.49740    0.24731    1.07727   1.00
N1       0.41251    0.24143    0.96579   1.00
C6       0.40300    0.21927    0.93516   1.00
C6       0.40721    0.27846    0.95499   1.00
C6       0.39198    0.24241    0.90422   1.00
C6       0.39465    0.28005    0.91684   1.00
H3       0.40429    0.18803    0.93503   1.00
H3       0.41244    0.30300    0.97358   1.00
H3       0.38298    0.23287    0.87568   1.00
H3       0.38819    0.30575    0.90008   1.00
N1       0.55801    0.25857    1.07388   1.00
C6       0.56989    0.22154    1.07584   1.00
C6       0.59009    0.28073    1.07414   1.00
C6       0.61004    0.21995    1.07685   1.00
C6       0.62289    0.25759    1.07576   1.00
H3       0.55058    0.19700    1.07620   1.00
H3       0.58984    0.31197    1.07288   1.00
H3       0.62795    0.19425    1.07820   1.00
H3       0.65282    0.26713    1.07614   1.00
C4       0.50012    0.50016    0.77085   1.00
C4       0.49988    0.49984    0.72915   1.00
C3a      0.53466    0.50868    0.79254   1.00
C3       0.49771    0.53490    0.70768   1.00
C3       0.46592    0.49212    0.79232   1.00
C3a      0.50170    0.46431    0.70746   1.00
C2       0.49994    0.50005    0.85512   1.00
C2       0.49993    0.50005    0.64488   1.00
C3       0.53404    0.50841    0.83405   1.00
C3       0.49785    0.53496    0.66637   1.00
C3       0.46591    0.49196    0.83363   1.00
C3       0.50177    0.46498    0.66595   1.00
C5       0.57287    0.51758    0.77228   1.00
H1       0.49629    0.56246    0.72309   1.00
H1       0.56041    0.51471    0.85021   1.00
H1       0.49637    0.56250    0.65099   1.00
H1       0.43912    0.48542    0.84901   1.00
H1       0.50336    0.43791    0.64979   1.00
C5       0.50421    0.42515    0.72772   1.00
H1       0.43913    0.48552    0.77691   1.00
H2       0.51645    0.40304    0.70744   1.00
H2       0.52480    0.42677    0.75269   1.00
H2       0.59758    0.51225    0.79256   1.00
H2       0.57727    0.49740    0.74731   1.00
N1       0.46579    0.41251    0.74143   1.00
C6       0.43516    0.40300    0.71927   1.00
C6       0.45499    0.40721    0.77846   1.00
C6       0.40422    0.39198    0.74241   1.00
C6       0.41684    0.39465    0.78005   1.00
H3       0.43503    0.40429    0.68803   1.00
H3       0.47358    0.41244    0.80300   1.00
H3       0.37568    0.38298    0.73287   1.00
H3       0.40008    0.38819    0.80575   1.00
N1       0.57388    0.55801    0.75857   1.00
C6       0.57584    0.56989    0.72154   1.00
C6       0.57414    0.59009    0.78073   1.00
C6       0.57685    0.61004    0.71995   1.00
C6       0.57576    0.62289    0.75759   1.00
H3       0.57620    0.55058    0.69700   1.00
H3       0.57288    0.58984    0.81197   1.00
H3       0.57820    0.62795    0.69425   1.00
H3       0.57614    0.65282    0.76713   1.00
C4       0.50012    0.99984    0.72915   1.00
C4       0.49988    1.00016    0.77085   1.00
C3a      0.53466    0.99132    0.70746   1.00
C3       0.49771    0.96510    0.79232   1.00
C3       0.46592    1.00788    0.70768   1.00
C3a      0.50170    1.03569    0.79254   1.00
C2       0.49994    0.99995    0.64488   1.00
C2       0.49993    0.99995    0.85512   1.00
C3       0.53404    0.99159    0.66595   1.00
C3       0.49785    0.96504    0.83363   1.00
C3       0.46591    1.00804    0.66637   1.00
C3       0.50177    1.03502    0.83405   1.00
C5       0.57287    0.98242    0.72772   1.00
H1       0.49629    0.93754    0.77691   1.00
H1       0.56041    0.98529    0.64979   1.00
H1       0.49637    0.93750    0.84901   1.00
H1       0.43912    1.01458    0.65099   1.00
H1       0.50336    1.06209    0.85021   1.00
C5       0.50421    1.07485    0.77228   1.00
H1       0.43913    1.01448    0.72309   1.00
H2       0.51645    1.09696    0.79256   1.00
H2       0.52480    1.07323    0.74731   1.00
H2       0.59758    0.98775    0.70744   1.00
H2       0.57727    1.00260    0.75269   1.00
N1       0.46579    1.08749    0.75857   1.00
C6       0.43516    1.09700    0.78073   1.00
C6       0.45499    1.09279    0.72154   1.00
C6       0.40422    1.10802    0.75759   1.00
C6       0.41684    1.10535    0.71995   1.00
H3       0.43503    1.09571    0.81197   1.00
H3       0.47358    1.08756    0.69700   1.00
H3       0.37568    1.11702    0.76713   1.00
H3       0.40008    1.11181    0.69425   1.00
N1       0.57388    0.94199    0.74143   1.00
C6       0.57584    0.93011    0.77846   1.00
C6       0.57414    0.90991    0.71927   1.00
C6       0.57685    0.88996    0.78005   1.00
C6       0.57576    0.87711    0.74241   1.00
H3       0.57620    0.94942    0.80300   1.00
H3       0.57288    0.91016    0.68803   1.00
H3       0.57820    0.87205    0.80575   1.00
H3       0.57614    0.84718    0.73287   1.00
C4       0.49984    1.22915    0.50012   1.00
C4       0.50016    1.27085    0.49988   1.00
C3a      0.49132    1.20746    0.53466   1.00
C3       0.46510    1.29232    0.49771   1.00
C3       0.50788    1.20768    0.46592   1.00
C3a      0.53569    1.29254    0.50170   1.00
C2       0.49995    1.14488    0.49994   1.00
C2       0.49995    1.35512    0.49993   1.00
C3       0.49159    1.16595    0.53404   1.00
C3       0.46504    1.33363    0.49785   1.00
C3       0.50804    1.16637    0.46591   1.00
C3       0.53502    1.33405    0.50177   1.00
C5       0.48242    1.22772    0.57287   1.00
H1       0.43754    1.27691    0.49629   1.00
H1       0.48529    1.14979    0.56041   1.00
H1       0.43750    1.34901    0.49637   1.00
H1       0.51458    1.15099    0.43912   1.00
H1       0.56209    1.35021    0.50336   1.00
C5       0.57485    1.27228    0.50421   1.00
H1       0.51448    1.22309    0.43913   1.00
H2       0.59696    1.29256    0.51645   1.00
H2       0.57323    1.24731    0.52480   1.00
H2       0.48775    1.20744    0.59758   1.00
H2       0.50260    1.25269    0.57727   1.00
N1       0.58749    1.25857    0.46579   1.00
C6       0.59700    1.28073    0.43516   1.00
C6       0.59279    1.22154    0.45499   1.00
C6       0.60802    1.25759    0.40422   1.00
C6       0.60535    1.21995    0.41684   1.00
H3       0.59571    1.31197    0.43503   1.00
H3       0.58756    1.19700    0.47358   1.00
H3       0.61702    1.26713    0.37568   1.00
H3       0.61181    1.19425    0.40008   1.00
N1       0.44199    1.24143    0.57388   1.00
C6       0.43011    1.27846    0.57584   1.00
C6       0.40991    1.21927    0.57414   1.00
C6       0.38996    1.28005    0.57685   1.00
C6       0.37711    1.24241    0.57576   1.00
H3       0.44942    1.30300    0.57620   1.00
H3       0.41016    1.18803    0.57288   1.00
H3       0.37205    1.30575    0.57820   1.00
H3       0.34718    1.23287    0.57614   1.00
C4       0.27085    1.00012    0.50016   1.00
C4       0.22915    0.99988    0.49984   1.00
C3a      0.29254    1.03466    0.50868   1.00
C3       0.20768    0.99771    0.53490   1.00
C3       0.29232    0.96592    0.49212   1.00
C3a      0.20746    1.00170    0.46431   1.00
C2       0.35512    0.99994    0.50005   1.00
C2       0.14488    0.99993    0.50005   1.00
C3       0.33405    1.03404    0.50841   1.00
C3       0.16637    0.99785    0.53496   1.00
C3       0.33363    0.96591    0.49196   1.00
C3       0.16595    1.00177    0.46498   1.00
C5       0.27228    1.07287    0.51758   1.00
H1       0.22309    0.99629    0.56246   1.00
H1       0.35021    1.06041    0.51471   1.00
H1       0.15099    0.99637    0.56250   1.00
H1       0.34901    0.93912    0.48542   1.00
H1       0.14979    1.00336    0.43791   1.00
C5       0.22772    1.00421    0.42515   1.00
H1       0.27691    0.93913    0.48552   1.00
H2       0.20744    1.01645    0.40304   1.00
H2       0.25269    1.02480    0.42677   1.00
H2       0.29256    1.09758    0.51225   1.00
H2       0.24731    1.07727    0.49740   1.00
N1       0.24143    0.96579    0.41251   1.00
C6       0.21927    0.93516    0.40300   1.00
C6       0.27846    0.95499    0.40721   1.00
C6       0.24241    0.90422    0.39198   1.00
C6       0.28005    0.91684    0.39465   1.00
H3       0.18803    0.93503    0.40429   1.00
H3       0.30300    0.97358    0.41244   1.00
H3       0.23287    0.87568    0.38298   1.00
H3       0.30575    0.90008    0.38819   1.00
N1       0.25857    1.07388    0.55801   1.00
C6       0.22154    1.07584    0.56989   1.00
C6       0.28073    1.07414    0.59009   1.00
C6       0.21995    1.07685    0.61004   1.00
C6       0.25759    1.07576    0.62289   1.00
H3       0.19700    1.07620    0.55058   1.00
H3       0.31197    1.07288    0.58984   1.00
H3       0.19425    1.07820    0.62795   1.00
H3       0.26713    1.07614    0.65282   1.00
C4       0.72915    1.00012    0.49984   1.00
C4       0.77085    0.99988    0.50016   1.00
C3a      0.70746    1.03466    0.49132   1.00
C3       0.79232    0.99771    0.46510   1.00
C3       0.70768    0.96592    0.50788   1.00
C3a      0.79254    1.00170    0.53569   1.00
C2       0.64488    0.99994    0.49995   1.00
C2       0.85512    0.99993    0.49995   1.00
C3       0.66595    1.03404    0.49159   1.00
C3       0.83363    0.99785    0.46504   1.00
C3       0.66637    0.96591    0.50804   1.00
C3       0.83405    1.00177    0.53502   1.00
C5       0.72772    1.07287    0.48242   1.00
H1       0.77691    0.99629    0.43754   1.00
H1       0.64979    1.06041    0.48529   1.00
H1       0.84901    0.99637    0.43750   1.00
H1       0.65099    0.93912    0.51458   1.00
H1       0.85021    1.00336    0.56209   1.00
C5       0.77228    1.00421    0.57485   1.00
H1       0.72309    0.93913    0.51448   1.00
H2       0.79256    1.01645    0.59696   1.00
H2       0.74731    1.02480    0.57323   1.00
H2       0.70744    1.09758    0.48775   1.00
H2       0.75269    1.07727    0.50260   1.00
N1       0.75857    0.96579    0.58749   1.00
C6       0.78073    0.93516    0.59700   1.00
C6       0.72154    0.95499    0.59279   1.00
C6       0.75759    0.90422    0.60802   1.00
C6       0.71995    0.91684    0.60535   1.00
H3       0.81197    0.93503    0.59571   1.00
H3       0.69700    0.97358    0.58756   1.00
H3       0.76713    0.87568    0.61702   1.00
H3       0.69425    0.90008    0.61181   1.00
N1       0.74143    1.07388    0.44199   1.00
C6       0.77846    1.07584    0.43011   1.00
C6       0.71927    1.07414    0.40991   1.00
C6       0.78005    1.07685    0.38996   1.00
C6       0.74241    1.07576    0.37711   1.00
H3       0.80300    1.07620    0.44942   1.00
H3       0.68803    1.07288    0.41016   1.00
H3       0.80575    1.07820    0.37205   1.00
H3       0.73287    1.07614    0.34718   1.00
C4       0.50016    0.77085    0.50012   1.00
C4       0.49984    0.72915    0.49988   1.00
C3a      0.50868    0.79254    0.53466   1.00
C3       0.53490    0.70768    0.49771   1.00
C3       0.49212    0.79232    0.46592   1.00
C3a      0.46431    0.70746    0.50170   1.00
C2       0.50005    0.85512    0.49994   1.00
C2       0.50005    0.64488    0.49993   1.00
C3       0.50841    0.83405    0.53404   1.00
C3       0.53496    0.66637    0.49785   1.00
C3       0.49196    0.83363    0.46591   1.00
C3       0.46498    0.66595    0.50177   1.00
C5       0.51758    0.77228    0.57287   1.00
H1       0.56246    0.72309    0.49629   1.00
H1       0.51471    0.85021    0.56041   1.00
H1       0.56250    0.65099    0.49637   1.00
H1       0.48542    0.84901    0.43912   1.00
H1       0.43791    0.64979    0.50336   1.00
C5       0.42515    0.72772    0.50421   1.00
H1       0.48552    0.77691    0.43913   1.00
H2       0.40304    0.70744    0.51645   1.00
H2       0.42677    0.75269    0.52480   1.00
H2       0.51225    0.79256    0.59758   1.00
H2       0.49740    0.74731    0.57727   1.00
N1       0.41251    0.74143    0.46579   1.00
C6       0.40300    0.71927    0.43516   1.00
C6       0.40721    0.77846    0.45499   1.00
C6       0.39198    0.74241    0.40422   1.00
C6       0.39465    0.78005    0.41684   1.00
H3       0.40429    0.68803    0.43503   1.00
H3       0.41244    0.80300    0.47358   1.00
H3       0.38298    0.73287    0.37568   1.00
H3       0.38819    0.80575    0.40008   1.00
N1       0.55801    0.75857    0.57388   1.00
C6       0.56989    0.72154    0.57584   1.00
C6       0.59009    0.78073    0.57414   1.00
C6       0.61004    0.71995    0.57685   1.00
C6       0.62289    0.75759    0.57576   1.00
H3       0.55058    0.69700    0.57620   1.00
H3       0.58984    0.81197    0.57288   1.00
H3       0.62795    0.69425    0.57820   1.00
H3       0.65282    0.76713    0.57614   1.00
C4       0.50012    1.00016    0.27085   1.00
C4       0.49988    0.99984    0.22915   1.00
C3a      0.53466    1.00868    0.29254   1.00
C3       0.49771    1.03490    0.20768   1.00
C3       0.46592    0.99212    0.29232   1.00
C3a      0.50170    0.96431    0.20746   1.00
C2       0.49994    1.00005    0.35512   1.00
C2       0.49993    1.00005    0.14488   1.00
C3       0.53404    1.00841    0.33405   1.00
C3       0.49785    1.03496    0.16637   1.00
C3       0.46591    0.99196    0.33363   1.00
C3       0.50177    0.96498    0.16595   1.00
C5       0.57287    1.01758    0.27228   1.00
H1       0.49629    1.06246    0.22309   1.00
H1       0.56041    1.01471    0.35021   1.00
H1       0.49637    1.06250    0.15099   1.00
H1       0.43912    0.98542    0.34901   1.00
H1       0.50336    0.93791    0.14979   1.00
C5       0.50421    0.92515    0.22772   1.00
H1       0.43913    0.98552    0.27691   1.00
H2       0.51645    0.90304    0.20744   1.00
H2       0.52480    0.92677    0.25269   1.00
H2       0.59758    1.01225    0.29256   1.00
H2       0.57727    0.99740    0.24731   1.00
N1       0.46579    0.91251    0.24143   1.00
C6       0.43516    0.90300    0.21927   1.00
C6       0.45499    0.90721    0.27846   1.00
C6       0.40422    0.89198    0.24241   1.00
C6       0.41684    0.89465    0.28005   1.00
H3       0.43503    0.90429    0.18803   1.00
H3       0.47358    0.91244    0.30300   1.00
H3       0.37568    0.88298    0.23287   1.00
H3       0.40008    0.88819    0.30575   1.00
N1       0.57388    1.05801    0.25857   1.00
C6       0.57584    1.06989    0.22154   1.00
C6       0.57414    1.09009    0.28073   1.00
C6       0.57685    1.11004    0.21995   1.00
C6       0.57576    1.12289    0.25759   1.00
H3       0.57620    1.05058    0.19700   1.00
H3       0.57288    1.08984    0.31197   1.00
H3       0.57820    1.12795    0.19425   1.00
H3       0.57614    1.15282    0.26713   1.00
C4       1.00012    0.49984    0.72915   1.00
C4       0.99988    0.50016    0.77085   1.00
C3a      1.03466    0.49132    0.70746   1.00
C3       0.99771    0.46510    0.79232   1.00
C3       0.96592    0.50788    0.70768   1.00
C3a      1.00170    0.53569    0.79254   1.00
C2       0.99994    0.49995    0.64488   1.00
C2       0.99993    0.49995    0.85512   1.00
C3       1.03404    0.49159    0.66595   1.00
C3       0.99785    0.46504    0.83363   1.00
C3       0.96591    0.50804    0.66637   1.00
C3       1.00177    0.53502    0.83405   1.00
C5       1.07287    0.48242    0.72772   1.00
H1       0.99629    0.43754    0.77691   1.00
H1       1.06041    0.48529    0.64979   1.00
H1       0.99637    0.43750    0.84901   1.00
H1       0.93912    0.51458    0.65099   1.00
H1       1.00336    0.56209    0.85021   1.00
C5       1.00421    0.57485    0.77228   1.00
H1       0.93913    0.51448    0.72309   1.00
H2       1.01645    0.59696    0.79256   1.00
H2       1.02480    0.57323    0.74731   1.00
H2       1.09758    0.48775    0.70744   1.00
H2       1.07727    0.50260    0.75269   1.00
N1       0.96579    0.58749    0.75857   1.00
C6       0.93516    0.59700    0.78073   1.00
C6       0.95499    0.59279    0.72154   1.00
C6       0.90422    0.60802    0.75759   1.00
C6       0.91684    0.60535    0.71995   1.00
H3       0.93503    0.59571    0.81197   1.00
H3       0.97358    0.58756    0.69700   1.00
H3       0.87568    0.61702    0.76713   1.00
H3       0.90008    0.61181    0.69425   1.00
N1       1.07388    0.44199    0.74143   1.00
C6       1.07584    0.43011    0.77846   1.00
C6       1.07414    0.40991    0.71927   1.00
C6       1.07685    0.38996    0.78005   1.00
C6       1.07576    0.37711    0.74241   1.00
H3       1.07620    0.44942    0.80300   1.00
H3       1.07288    0.41016    0.68803   1.00
H3       1.07820    0.37205    0.80575   1.00
H3       1.07614    0.34718    0.73287   1.00
C4       0.99984    0.72915    0.50012   1.00
C4       1.00016    0.77085    0.49988   1.00
C3a      0.99132    0.70746    0.53466   1.00
C3       0.96510    0.79232    0.49771   1.00
C3       1.00788    0.70768    0.46592   1.00
C3a      1.03569    0.79254    0.50170   1.00
C2       0.99995    0.64488    0.49994   1.00
C2       0.99995    0.85512    0.49993   1.00
C3       0.99159    0.66595    0.53404   1.00
C3       0.96504    0.83363    0.49785   1.00
C3       1.00804    0.66637    0.46591   1.00
C3       1.03502    0.83405    0.50177   1.00
C5       0.98242    0.72772    0.57287   1.00
H1       0.93754    0.77691    0.49629   1.00
H1       0.98529    0.64979    0.56041   1.00
H1       0.93750    0.84901    0.49637   1.00
H1       1.01458    0.65099    0.43912   1.00
H1       1.06209    0.85021    0.50336   1.00
C5       1.07485    0.77228    0.50421   1.00
H1       1.01448    0.72309    0.43913   1.00
H2       1.09696    0.79256    0.51645   1.00
H2       1.07323    0.74731    0.52480   1.00
H2       0.98775    0.70744    0.59758   1.00
H2       1.00260    0.75269    0.57727   1.00
N1       1.08749    0.75857    0.46579   1.00
C6       1.09700    0.78073    0.43516   1.00
C6       1.09279    0.72154    0.45499   1.00
C6       1.10802    0.75759    0.40422   1.00
C6       1.10535    0.71995    0.41684   1.00
H3       1.09571    0.81197    0.43503   1.00
H3       1.08756    0.69700    0.47358   1.00
H3       1.11702    0.76713    0.37568   1.00
H3       1.11181    0.69425    0.40008   1.00
N1       0.94199    0.74143    0.57388   1.00
C6       0.93011    0.77846    0.57584   1.00
C6       0.90991    0.71927    0.57414   1.00
C6       0.88996    0.78005    0.57685   1.00
C6       0.87711    0.74241    0.57576   1.00
H3       0.94942    0.80300    0.57620   1.00
H3       0.91016    0.68803    0.57288   1.00
H3       0.87205    0.80575    0.57820   1.00
H3       0.84718    0.73287    0.57614   1.00
C4       0.77085    0.50012    0.50016   1.00
C4       0.72915    0.49988    0.49984   1.00
C3a      0.79254    0.53466    0.50868   1.00
C3       0.70768    0.49771    0.53490   1.00
C3       0.79232    0.46592    0.49212   1.00
C3a      0.70746    0.50170    0.46431   1.00
C2       0.85512    0.49994    0.50005   1.00
C2       0.64488    0.49993    0.50005   1.00
C3       0.83405    0.53404    0.50841   1.00
C3       0.66637    0.49785    0.53496   1.00
C3       0.83363    0.46591    0.49196   1.00
C3       0.66595    0.50177    0.46498   1.00
C5       0.77228    0.57287    0.51758   1.00
H1       0.72309    0.49629    0.56246   1.00
H1       0.85021    0.56041    0.51471   1.00
H1       0.65099    0.49637    0.56250   1.00
H1       0.84901    0.43912    0.48542   1.00
H1       0.64979    0.50336    0.43791   1.00
C5       0.72772    0.50421    0.42515   1.00
H1       0.77691    0.43913    0.48552   1.00
H2       0.70744    0.51645    0.40304   1.00
H2       0.75269    0.52480    0.42677   1.00
H2       0.79256    0.59758    0.51225   1.00
H2       0.74731    0.57727    0.49740   1.00
N1       0.74143    0.46579    0.41251   1.00
C6       0.71927    0.43516    0.40300   1.00
C6       0.77846    0.45499    0.40721   1.00
C6       0.74241    0.40422    0.39198   1.00
C6       0.78005    0.41684    0.39465   1.00
H3       0.68803    0.43503    0.40429   1.00
H3       0.80300    0.47358    0.41244   1.00
H3       0.73287    0.37568    0.38298   1.00
H3       0.80575    0.40008    0.38819   1.00
N1       0.75857    0.57388    0.55801   1.00
C6       0.72154    0.57584    0.56989   1.00
C6       0.78073    0.57414    0.59009   1.00
C6       0.71995    0.57685    0.61004   1.00
C6       0.75759    0.57576    0.62289   1.00
H3       0.69700    0.57620    0.55058   1.00
H3       0.81197    0.57288    0.58984   1.00
H3       0.69425    0.57820    0.62795   1.00
H3       0.76713    0.57614    0.65282   1.00
C4       1.22915    0.50012    0.49984   1.00
C4       1.27085    0.49988    0.50016   1.00
C3a      1.20746    0.53466    0.49132   1.00
C3       1.29232    0.49771    0.46510   1.00
C3       1.20768    0.46592    0.50788   1.00
C3a      1.29254    0.50170    0.53569   1.00
C2       1.14488    0.49994    0.49995   1.00
C2       1.35512    0.49993    0.49995   1.00
C3       1.16595    0.53404    0.49159   1.00
C3       1.33363    0.49785    0.46504   1.00
C3       1.16637    0.46591    0.50804   1.00
C3       1.33405    0.50177    0.53502   1.00
C5       1.22772    0.57287    0.48242   1.00
H1       1.27691    0.49629    0.43754   1.00
H1       1.14979    0.56041    0.48529   1.00
H1       1.34901    0.49637    0.43750   1.00
H1       1.15099    0.43912    0.51458   1.00
H1       1.35021    0.50336    0.56209   1.00
C5       1.27228    0.50421    0.57485   1.00
H1       1.22309    0.43913    0.51448   1.00
H2       1.29256    0.51645    0.59696   1.00
H2       1.24731    0.52480    0.57323   1.00
H2       1.20744    0.59758    0.48775   1.00
H2       1.25269    0.57727    0.50260   1.00
N1       1.25857    0.46579    0.58749   1.00
C6       1.28073    0.43516    0.59700   1.00
C6       1.22154    0.45499    0.59279   1.00
C6       1.25759    0.40422    0.60802   1.00
C6       1.21995    0.41684    0.60535   1.00
H3       1.31197    0.43503    0.59571   1.00
H3       1.19700    0.47358    0.58756   1.00
H3       1.26713    0.37568    0.61702   1.00
H3       1.19425    0.40008    0.61181   1.00
N1       1.24143    0.57388    0.44199   1.00
C6       1.27846    0.57584    0.43011   1.00
C6       1.21927    0.57414    0.40991   1.00
C6       1.28005    0.57685    0.38996   1.00
C6       1.24241    0.57576    0.37711   1.00
H3       1.30300    0.57620    0.44942   1.00
H3       1.18803    0.57288    0.41016   1.00
H3       1.30575    0.57820    0.37205   1.00
H3       1.23287    0.57614    0.34718   1.00
C4       1.00016    0.27085    0.50012   1.00
C4       0.99984    0.22915    0.49988   1.00
C3a      1.00868    0.29254    0.53466   1.00
C3       1.03490    0.20768    0.49771   1.00
C3       0.99212    0.29232    0.46592   1.00
C3a      0.96431    0.20746    0.50170   1.00
C2       1.00005    0.35512    0.49994   1.00
C2       1.00005    0.14488    0.49993   1.00
C3       1.00841    0.33405    0.53404   1.00
C3       1.03496    0.16637    0.49785   1.00
C3       0.99196    0.33363    0.46591   1.00
C3       0.96498    0.16595    0.50177   1.00
C5       1.01758    0.27228    0.57287   1.00
H1       1.06246    0.22309    0.49629   1.00
H1       1.01471    0.35021    0.56041   1.00
H1       1.06250    0.15099    0.49637   1.00
H1       0.98542    0.34901    0.43912   1.00
H1       0.93791    0.14979    0.50336   1.00
C5       0.92515    0.22772    0.50421   1.00
H1       0.98552    0.27691    0.43913   1.00
H2       0.90304    0.20744    0.51645   1.00
H2       0.92677    0.25269    0.52480   1.00
H2       1.01225    0.29256    0.59758   1.00
H2       0.99740    0.24731    0.57727   1.00
N1       0.91251    0.24143    0.46579   1.00
C6       0.90300    0.21927    0.43516   1.00
C6       0.90721    0.27846    0.45499   1.00
C6       0.89198    0.24241    0.40422   1.00
C6       0.89465    0.28005    0.41684   1.00
H3       0.90429    0.18803    0.43503   1.00
H3       0.91244    0.30300    0.47358   1.00
H3       0.88298    0.23287    0.37568   1.00
H3       0.88819    0.30575    0.40008   1.00
N1       1.05801    0.25857    0.57388   1.00
C6       1.06989    0.22154    0.57584   1.00
C6       1.09009    0.28073    0.57414   1.00
C6       1.11004    0.21995    0.57685   1.00
C6       1.12289    0.25759    0.57576   1.00
H3       1.05058    0.19700    0.57620   1.00
H3       1.08984    0.31197    0.57288   1.00
H3       1.12795    0.19425    0.57820   1.00
H3       1.15282    0.26713    0.57614   1.00
C4       1.00012    0.50016    0.27085   1.00
C4       0.99988    0.49984    0.22915   1.00
C3a      1.03466    0.50868    0.29254   1.00
C3       0.99771    0.53490    0.20768   1.00
C3       0.96592    0.49212    0.29232   1.00
C3a      1.00170    0.46431    0.20746   1.00
C2       0.99994    0.50005    0.35512   1.00
C2       0.99993    0.50005    0.14488   1.00
C3       1.03404    0.50841    0.33405   1.00
C3       0.99785    0.53496    0.16637   1.00
C3       0.96591    0.49196    0.33363   1.00
C3       1.00177    0.46498    0.16595   1.00
C5       1.07287    0.51758    0.27228   1.00
H1       0.99629    0.56246    0.22309   1.00
H1       1.06041    0.51471    0.35021   1.00
H1       0.99637    0.56250    0.15099   1.00
H1       0.93912    0.48542    0.34901   1.00
H1       1.00336    0.43791    0.14979   1.00
C5       1.00421    0.42515    0.22772   1.00
H1       0.93913    0.48552    0.27691   1.00
H2       1.01645    0.40304    0.20744   1.00
H2       1.02480    0.42677    0.25269   1.00
H2       1.09758    0.51225    0.29256   1.00
H2       1.07727    0.49740    0.24731   1.00
N1       0.96579    0.41251    0.24143   1.00
C6       0.93516    0.40300    0.21927   1.00
C6       0.95499    0.40721    0.27846   1.00
C6       0.90422    0.39198    0.24241   1.00
C6       0.91684    0.39465    0.28005   1.00
H3       0.93503    0.40429    0.18803   1.00
H3       0.97358    0.41244    0.30300   1.00
H3       0.87568    0.38298    0.23287   1.00
H3       0.90008    0.38819    0.30575   1.00
N1       1.07388    0.55801    0.25857   1.00
C6       1.07584    0.56989    0.22154   1.00
C6       1.07414    0.59009    0.28073   1.00
C6       1.07685    0.61004    0.21995   1.00
C6       1.07576    0.62289    0.25759   1.00
H3       1.07620    0.55058    0.19700   1.00
H3       1.07288    0.58984    0.31197   1.00
H3       1.07820    0.62795    0.19425   1.00
H3       1.07614    0.65282    0.26713   1.00
