data_IRMOF10_SG202_interpen_Ligand12lp_label_q.

_audit_creation_method             'generated by an auxiliary program of Tobunporous'

_symmetry_space_group_name_H-M     'P 1'
_symmetry_Int_Tables_number        1
_symmetry_cell_setting             triclinic

_cell_length_a                    34.2800
_cell_length_b                    34.2800
_cell_length_c                    34.2800
_cell_angle_alpha                 90.0000
_cell_angle_beta                  90.0000
_cell_angle_gamma                 90.0000

loop_
_atom_site_label
_atom_site_fract_x
_atom_site_fract_y
_atom_site_fract_z
_atom_site_occupancy
O1       0.75000    0.75000    0.75000   1.00
Zn1      0.71720    0.78280    0.78280   1.00
Zn1      0.78280    0.71720    0.78280   1.00
Zn1      0.78280    0.78280    0.71720   1.00
Zn1      0.71720    0.71720    0.71720   1.00
O2       0.72650    0.77350    0.83820   1.00
O2       0.72650    0.83820    0.77350   1.00
O2       0.66180    0.77350    0.77350   1.00
O2       0.77350    0.72650    0.83820   1.00
O2       0.83820    0.72650    0.77350   1.00
O2       0.77350    0.66180    0.77350   1.00
O2       0.77350    0.83820    0.72650   1.00
O2       0.83820    0.77350    0.72650   1.00
O2       0.77350    0.77350    0.66180   1.00
O2       0.66180    0.72650    0.72650   1.00
O2       0.72650    0.66180    0.72650   1.00
O2       0.72650    0.72650    0.66180   1.00
C1       0.75000    0.75000    0.85520   1.00
C1       0.75000    0.85520    0.75000   1.00
C1       0.64480    0.75000    0.75000   1.00
C1       0.85520    0.75000    0.75000   1.00
C1       0.75000    0.64480    0.75000   1.00
C1       0.75000    0.75000    0.64480   1.00
O1       0.25000    0.25000    0.75000   1.00
Zn1      0.21720    0.28280    0.78280   1.00
Zn1      0.28280    0.21720    0.78280   1.00
Zn1      0.28280    0.28280    0.71720   1.00
Zn1      0.21720    0.21720    0.71720   1.00
O2       0.22650    0.27350    0.83820   1.00
O2       0.22650    0.33820    0.77350   1.00
O2       0.16180    0.27350    0.77350   1.00
O2       0.27350    0.22650    0.83820   1.00
O2       0.33820    0.22650    0.77350   1.00
O2       0.27350    0.16180    0.77350   1.00
O2       0.27350    0.33820    0.72650   1.00
O2       0.33820    0.27350    0.72650   1.00
O2       0.27350    0.27350    0.66180   1.00
O2       0.16180    0.22650    0.72650   1.00
O2       0.22650    0.16180    0.72650   1.00
O2       0.22650    0.22650    0.66180   1.00
C1       0.25000    0.25000    0.85520   1.00
C1       0.25000    0.35520    0.75000   1.00
C1       0.14480    0.25000    0.75000   1.00
C1       0.35520    0.25000    0.75000   1.00
C1       0.25000    0.14480    0.75000   1.00
C1       0.25000    0.25000    0.64480   1.00
O1       0.25000    0.75000    0.25000   1.00
Zn1      0.21720    0.78280    0.28280   1.00
Zn1      0.28280    0.71720    0.28280   1.00
Zn1      0.28280    0.78280    0.21720   1.00
Zn1      0.21720    0.71720    0.21720   1.00
O2       0.22650    0.77350    0.33820   1.00
O2       0.22650    0.83820    0.27350   1.00
O2       0.16180    0.77350    0.27350   1.00
O2       0.27350    0.72650    0.33820   1.00
O2       0.33820    0.72650    0.27350   1.00
O2       0.27350    0.66180    0.27350   1.00
O2       0.27350    0.83820    0.22650   1.00
O2       0.33820    0.77350    0.22650   1.00
O2       0.27350    0.77350    0.16180   1.00
O2       0.16180    0.72650    0.22650   1.00
O2       0.22650    0.66180    0.22650   1.00
O2       0.22650    0.72650    0.16180   1.00
C1       0.25000    0.75000    0.35520   1.00
C1       0.25000    0.85520    0.25000   1.00
C1       0.14480    0.75000    0.25000   1.00
C1       0.35520    0.75000    0.25000   1.00
C1       0.25000    0.64480    0.25000   1.00
C1       0.25000    0.75000    0.14480   1.00
O1       0.75000    0.25000    0.25000   1.00
Zn1      0.71720    0.28280    0.28280   1.00
Zn1      0.78280    0.21720    0.28280   1.00
Zn1      0.78280    0.28280    0.21720   1.00
Zn1      0.71720    0.21720    0.21720   1.00
O2       0.72650    0.27350    0.33820   1.00
O2       0.72650    0.33820    0.27350   1.00
O2       0.66180    0.27350    0.27350   1.00
O2       0.77350    0.22650    0.33820   1.00
O2       0.83820    0.22650    0.27350   1.00
O2       0.77350    0.16180    0.27350   1.00
O2       0.77350    0.33820    0.22650   1.00
O2       0.83820    0.27350    0.22650   1.00
O2       0.77350    0.27350    0.16180   1.00
O2       0.66180    0.22650    0.22650   1.00
O2       0.72650    0.16180    0.22650   1.00
O2       0.72650    0.22650    0.16180   1.00
C1       0.75000    0.25000    0.35520   1.00
C1       0.75000    0.35520    0.25000   1.00
C1       0.64480    0.25000    0.25000   1.00
C1       0.85520    0.25000    0.25000   1.00
C1       0.75000    0.14480    0.25000   1.00
C1       0.75000    0.25000    0.14480   1.00
O1       0.25000    0.25000    0.25000   1.00
Zn1      0.28280    0.21720    0.21720   1.00
Zn1      0.21720    0.28280    0.21720   1.00
Zn1      0.21720    0.21720    0.28280   1.00
Zn1      0.28280    0.28280    0.28280   1.00
O2       0.27350    0.22650    0.16180   1.00
O2       0.27350    0.16180    0.22650   1.00
O2       0.33820    0.22650    0.22650   1.00
O2       0.22650    0.27350    0.16180   1.00
O2       0.16180    0.27350    0.22650   1.00
O2       0.22650    0.33820    0.22650   1.00
O2       0.22650    0.16180    0.27350   1.00
O2       0.16180    0.22650    0.27350   1.00
O2       0.22650    0.22650    0.33820   1.00
O2       0.33820    0.27350    0.27350   1.00
O2       0.27350    0.33820    0.27350   1.00
O2       0.27350    0.27350    0.33820   1.00
C1       0.25000    0.25000    0.14480   1.00
C1       0.25000    0.14480    0.25000   1.00
C1       0.35520    0.25000    0.25000   1.00
C1       0.14480    0.25000    0.25000   1.00
C1       0.25000    0.35520    0.25000   1.00
C1       0.25000    0.25000    0.35520   1.00
O1       0.75000    0.75000    0.25000   1.00
Zn1      0.78280    0.71720    0.21720   1.00
Zn1      0.71720    0.78280    0.21720   1.00
Zn1      0.71720    0.71720    0.28280   1.00
Zn1      0.78280    0.78280    0.28280   1.00
O2       0.77350    0.72650    0.16180   1.00
O2       0.77350    0.66180    0.22650   1.00
O2       0.83820    0.72650    0.22650   1.00
O2       0.72650    0.77350    0.16180   1.00
O2       0.66180    0.77350    0.22650   1.00
O2       0.72650    0.83820    0.22650   1.00
O2       0.72650    0.66180    0.27350   1.00
O2       0.66180    0.72650    0.27350   1.00
O2       0.72650    0.72650    0.33820   1.00
O2       0.83820    0.77350    0.27350   1.00
O2       0.77350    0.83820    0.27350   1.00
O2       0.77350    0.77350    0.33820   1.00
C1       0.75000    0.75000    0.14480   1.00
C1       0.75000    0.64480    0.25000   1.00
C1       0.85520    0.75000    0.25000   1.00
C1       0.64480    0.75000    0.25000   1.00
C1       0.75000    0.85520    0.25000   1.00
C1       0.75000    0.75000    0.35520   1.00
O1       0.75000    0.25000    0.75000   1.00
Zn1      0.78280    0.21720    0.71720   1.00
Zn1      0.71720    0.28280    0.71720   1.00
Zn1      0.71720    0.21720    0.78280   1.00
Zn1      0.78280    0.28280    0.78280   1.00
O2       0.77350    0.22650    0.66180   1.00
O2       0.77350    0.16180    0.72650   1.00
O2       0.83820    0.22650    0.72650   1.00
O2       0.72650    0.27350    0.66180   1.00
O2       0.66180    0.27350    0.72650   1.00
O2       0.72650    0.33820    0.72650   1.00
O2       0.72650    0.16180    0.77350   1.00
O2       0.66180    0.22650    0.77350   1.00
O2       0.72650    0.22650    0.83820   1.00
O2       0.83820    0.27350    0.77350   1.00
O2       0.77350    0.33820    0.77350   1.00
O2       0.77350    0.27350    0.83820   1.00
C1       0.75000    0.25000    0.64480   1.00
C1       0.75000    0.14480    0.75000   1.00
C1       0.85520    0.25000    0.75000   1.00
C1       0.64480    0.25000    0.75000   1.00
C1       0.75000    0.35520    0.75000   1.00
C1       0.75000    0.25000    0.85520   1.00
O1       0.25000    0.75000    0.75000   1.00
Zn1      0.28280    0.71720    0.71720   1.00
Zn1      0.21720    0.78280    0.71720   1.00
Zn1      0.21720    0.71720    0.78280   1.00
Zn1      0.28280    0.78280    0.78280   1.00
O2       0.27350    0.72650    0.66180   1.00
O2       0.27350    0.66180    0.72650   1.00
O2       0.33820    0.72650    0.72650   1.00
O2       0.22650    0.77350    0.66180   1.00
O2       0.16180    0.77350    0.72650   1.00
O2       0.22650    0.83820    0.72650   1.00
O2       0.22650    0.66180    0.77350   1.00
O2       0.16180    0.72650    0.77350   1.00
O2       0.22650    0.72650    0.83820   1.00
O2       0.33820    0.77350    0.77350   1.00
O2       0.27350    0.83820    0.77350   1.00
O2       0.27350    0.77350    0.83820   1.00
C1       0.25000    0.75000    0.64480   1.00
C1       0.25000    0.64480    0.75000   1.00
C1       0.35520    0.75000    0.75000   1.00
C1       0.14480    0.75000    0.75000   1.00
C1       0.25000    0.85520    0.75000   1.00
C1       0.25000    0.75000    0.85520   1.00
O1       1.00000    1.00000    1.00000   1.00
Zn1      0.96720    1.03280    1.03280   1.00
Zn1      1.03280    0.96720    1.03280   1.00
Zn1      1.03280    1.03280    0.96720   1.00
Zn1      0.96720    0.96720    0.96720   1.00
O2       0.97650    1.02350    1.08820   1.00
O2       0.97650    1.08820    1.02350   1.00
O2       0.91180    1.02350    1.02350   1.00
O2       1.02350    0.97650    1.08820   1.00
O2       1.08820    0.97650    1.02350   1.00
O2       1.02350    0.91180    1.02350   1.00
O2       1.02350    1.08820    0.97650   1.00
O2       1.08820    1.02350    0.97650   1.00
O2       1.02350    1.02350    0.91180   1.00
O2       0.91180    0.97650    0.97650   1.00
O2       0.97650    0.91180    0.97650   1.00
O2       0.97650    0.97650    0.91180   1.00
C1       1.00000    1.00000    1.10520   1.00
C1       1.00000    1.10520    1.00000   1.00
C1       0.89480    1.00000    1.00000   1.00
C1       1.10520    1.00000    1.00000   1.00
C1       1.00000    0.89480    1.00000   1.00
C1       1.00000    1.00000    0.89480   1.00
O1       0.50000    0.50000    1.00000   1.00
Zn1      0.46720    0.53280    1.03280   1.00
Zn1      0.53280    0.46720    1.03280   1.00
Zn1      0.53280    0.53280    0.96720   1.00
Zn1      0.46720    0.46720    0.96720   1.00
O2       0.47650    0.52350    1.08820   1.00
O2       0.47650    0.58820    1.02350   1.00
O2       0.41180    0.52350    1.02350   1.00
O2       0.52350    0.47650    1.08820   1.00
O2       0.58820    0.47650    1.02350   1.00
O2       0.52350    0.41180    1.02350   1.00
O2       0.52350    0.58820    0.97650   1.00
O2       0.58820    0.52350    0.97650   1.00
O2       0.52350    0.52350    0.91180   1.00
O2       0.41180    0.47650    0.97650   1.00
O2       0.47650    0.41180    0.97650   1.00
O2       0.47650    0.47650    0.91180   1.00
C1       0.50000    0.50000    1.10520   1.00
C1       0.50000    0.60520    1.00000   1.00
C1       0.39480    0.50000    1.00000   1.00
C1       0.60520    0.50000    1.00000   1.00
C1       0.50000    0.39480    1.00000   1.00
C1       0.50000    0.50000    0.89480   1.00
O1       0.50000    1.00000    0.50000   1.00
Zn1      0.46720    1.03280    0.53280   1.00
Zn1      0.53280    0.96720    0.53280   1.00
Zn1      0.53280    1.03280    0.46720   1.00
Zn1      0.46720    0.96720    0.46720   1.00
O2       0.47650    1.02350    0.58820   1.00
O2       0.47650    1.08820    0.52350   1.00
O2       0.41180    1.02350    0.52350   1.00
O2       0.52350    0.97650    0.58820   1.00
O2       0.58820    0.97650    0.52350   1.00
O2       0.52350    0.91180    0.52350   1.00
O2       0.52350    1.08820    0.47650   1.00
O2       0.58820    1.02350    0.47650   1.00
O2       0.52350    1.02350    0.41180   1.00
O2       0.41180    0.97650    0.47650   1.00
O2       0.47650    0.91180    0.47650   1.00
O2       0.47650    0.97650    0.41180   1.00
C1       0.50000    1.00000    0.60520   1.00
C1       0.50000    1.10520    0.50000   1.00
C1       0.39480    1.00000    0.50000   1.00
C1       0.60520    1.00000    0.50000   1.00
C1       0.50000    0.89480    0.50000   1.00
C1       0.50000    1.00000    0.39480   1.00
O1       1.00000    0.50000    0.50000   1.00
Zn1      0.96720    0.53280    0.53280   1.00
Zn1      1.03280    0.46720    0.53280   1.00
Zn1      1.03280    0.53280    0.46720   1.00
Zn1      0.96720    0.46720    0.46720   1.00
O2       0.97650    0.52350    0.58820   1.00
O2       0.97650    0.58820    0.52350   1.00
O2       0.91180    0.52350    0.52350   1.00
O2       1.02350    0.47650    0.58820   1.00
O2       1.08820    0.47650    0.52350   1.00
O2       1.02350    0.41180    0.52350   1.00
O2       1.02350    0.58820    0.47650   1.00
O2       1.08820    0.52350    0.47650   1.00
O2       1.02350    0.52350    0.41180   1.00
O2       0.91180    0.47650    0.47650   1.00
O2       0.97650    0.41180    0.47650   1.00
O2       0.97650    0.47650    0.41180   1.00
C1       1.00000    0.50000    0.60520   1.00
C1       1.00000    0.60520    0.50000   1.00
C1       0.89480    0.50000    0.50000   1.00
C1       1.10520    0.50000    0.50000   1.00
C1       1.00000    0.39480    0.50000   1.00
C1       1.00000    0.50000    0.39480   1.00
O1       0.50000    0.50000    0.50000   1.00
Zn1      0.53280    0.46720    0.46720   1.00
Zn1      0.46720    0.53280    0.46720   1.00
Zn1      0.46720    0.46720    0.53280   1.00
Zn1      0.53280    0.53280    0.53280   1.00
O2       0.52350    0.47650    0.41180   1.00
O2       0.52350    0.41180    0.47650   1.00
O2       0.58820    0.47650    0.47650   1.00
O2       0.47650    0.52350    0.41180   1.00
O2       0.41180    0.52350    0.47650   1.00
O2       0.47650    0.58820    0.47650   1.00
O2       0.47650    0.41180    0.52350   1.00
O2       0.41180    0.47650    0.52350   1.00
O2       0.47650    0.47650    0.58820   1.00
O2       0.58820    0.52350    0.52350   1.00
O2       0.52350    0.58820    0.52350   1.00
O2       0.52350    0.52350    0.58820   1.00
C1       0.50000    0.50000    0.39480   1.00
C1       0.50000    0.39480    0.50000   1.00
C1       0.60520    0.50000    0.50000   1.00
C1       0.39480    0.50000    0.50000   1.00
C1       0.50000    0.60520    0.50000   1.00
C1       0.50000    0.50000    0.60520   1.00
O1       1.00000    1.00000    0.50000   1.00
Zn1      1.03280    0.96720    0.46720   1.00
Zn1      0.96720    1.03280    0.46720   1.00
Zn1      0.96720    0.96720    0.53280   1.00
Zn1      1.03280    1.03280    0.53280   1.00
O2       1.02350    0.97650    0.41180   1.00
O2       1.02350    0.91180    0.47650   1.00
O2       1.08820    0.97650    0.47650   1.00
O2       0.97650    1.02350    0.41180   1.00
O2       0.91180    1.02350    0.47650   1.00
O2       0.97650    1.08820    0.47650   1.00
O2       0.97650    0.91180    0.52350   1.00
O2       0.91180    0.97650    0.52350   1.00
O2       0.97650    0.97650    0.58820   1.00
O2       1.08820    1.02350    0.52350   1.00
O2       1.02350    1.08820    0.52350   1.00
O2       1.02350    1.02350    0.58820   1.00
C1       1.00000    1.00000    0.39480   1.00
C1       1.00000    0.89480    0.50000   1.00
C1       1.10520    1.00000    0.50000   1.00
C1       0.89480    1.00000    0.50000   1.00
C1       1.00000    1.10520    0.50000   1.00
C1       1.00000    1.00000    0.60520   1.00
O1       1.00000    0.50000    1.00000   1.00
Zn1      1.03280    0.46720    0.96720   1.00
Zn1      0.96720    0.53280    0.96720   1.00
Zn1      0.96720    0.46720    1.03280   1.00
Zn1      1.03280    0.53280    1.03280   1.00
O2       1.02350    0.47650    0.91180   1.00
O2       1.02350    0.41180    0.97650   1.00
O2       1.08820    0.47650    0.97650   1.00
O2       0.97650    0.52350    0.91180   1.00
O2       0.91180    0.52350    0.97650   1.00
O2       0.97650    0.58820    0.97650   1.00
O2       0.97650    0.41180    1.02350   1.00
O2       0.91180    0.47650    1.02350   1.00
O2       0.97650    0.47650    1.08820   1.00
O2       1.08820    0.52350    1.02350   1.00
O2       1.02350    0.58820    1.02350   1.00
O2       1.02350    0.52350    1.08820   1.00
C1       1.00000    0.50000    0.89480   1.00
C1       1.00000    0.39480    1.00000   1.00
C1       1.10520    0.50000    1.00000   1.00
C1       0.89480    0.50000    1.00000   1.00
C1       1.00000    0.60520    1.00000   1.00
C1       1.00000    0.50000    1.10520   1.00
O1       0.50000    1.00000    1.00000   1.00
Zn1      0.53280    0.96720    0.96720   1.00
Zn1      0.46720    1.03280    0.96720   1.00
Zn1      0.46720    0.96720    1.03280   1.00
Zn1      0.53280    1.03280    1.03280   1.00
O2       0.52350    0.97650    0.91180   1.00
O2       0.52350    0.91180    0.97650   1.00
O2       0.58820    0.97650    0.97650   1.00
O2       0.47650    1.02350    0.91180   1.00
O2       0.41180    1.02350    0.97650   1.00
O2       0.47650    1.08820    0.97650   1.00
O2       0.47650    0.91180    1.02350   1.00
O2       0.41180    0.97650    1.02350   1.00
O2       0.47650    0.97650    1.08820   1.00
O2       0.58820    1.02350    1.02350   1.00
O2       0.52350    1.08820    1.02350   1.00
O2       0.52350    1.02350    1.08820   1.00
C1       0.50000    1.00000    0.89480   1.00
C1       0.50000    0.89480    1.00000   1.00
C1       0.60520    1.00000    1.00000   1.00
C1       0.39480    1.00000    1.00000   1.00
C1       0.50000    1.10520    1.00000   1.00
C1       0.50000    1.00000    1.10520   1.00
C4       0.75000    0.74922    1.02067   1.00
C4       0.75000    0.75078    0.97933   1.00
C3       0.71484    0.74555    1.04244   1.00
C3       0.71484    0.75445    0.95756   1.00
C4       0.78579    0.75166    1.04150   1.00
C4       0.78579    0.74834    0.95850   1.00
C2       0.74937    0.75002    1.10352   1.00
C2       0.74937    0.74998    0.89648   1.00
C3       0.71471    0.74633    1.08310   1.00
C3       0.71471    0.75367    0.91690   1.00
C3       0.78459    0.75211    1.08306   1.00
C3       0.78459    0.74789    0.91694   1.00
H1       0.68687    0.74107    1.02888   1.00
H1       0.68687    0.75893    0.97112   1.00
C5       0.82179    0.75299    1.02065   1.00
C5       0.82179    0.74701    0.97935   1.00
H1       0.68744    0.74380    1.09886   1.00
H1       0.68744    0.75620    0.90114   1.00
H1       0.81071    0.75347    1.10053   1.00
H1       0.81071    0.74653    0.89947   1.00
C6       0.85968    0.76226    1.04234   1.00
C6       0.85968    0.73774    0.95766   1.00
H2       0.87958    0.77960    1.02358   1.00
H2       0.85477    0.78200    1.06737   1.00
C6       0.87940    0.72485    1.05724   1.00
H2       0.87958    0.72040    0.97642   1.00
H2       0.85477    0.71800    0.93263   1.00
C6       0.87940    0.77515    0.94276   1.00
H2       0.88569    0.70451    1.03274   1.00
C6       0.91741    0.73454    1.07832   1.00
H2       0.85948    0.70920    1.07760   1.00
C6       0.91741    0.76546    0.92168   1.00
H2       0.85948    0.79080    0.92240   1.00
H2       0.88569    0.79549    0.96726   1.00
H2       0.93805    0.74943    1.05822   1.00
H2       0.91172    0.75377    1.10380   1.00
H2       0.93134    0.70729    1.08898   1.00
H2       0.93805    0.75057    0.94178   1.00
H2       0.91172    0.74623    0.89620   1.00
H2       0.93134    0.79271    0.91102   1.00
C4       0.74922    1.02067    0.75000   1.00
C4       0.75078    0.97933    0.75000   1.00
C3       0.74555    1.04244    0.71484   1.00
C3       0.75445    0.95756    0.71484   1.00
C4       0.75166    1.04150    0.78579   1.00
C4       0.74834    0.95850    0.78579   1.00
C2       0.75002    1.10352    0.74937   1.00
C2       0.74998    0.89648    0.74937   1.00
C3       0.74633    1.08310    0.71471   1.00
C3       0.75367    0.91690    0.71471   1.00
C3       0.75211    1.08306    0.78459   1.00
C3       0.74789    0.91694    0.78459   1.00
H1       0.74107    1.02888    0.68687   1.00
H1       0.75893    0.97112    0.68687   1.00
C5       0.75299    1.02065    0.82179   1.00
C5       0.74701    0.97935    0.82179   1.00
H1       0.74380    1.09886    0.68744   1.00
H1       0.75620    0.90114    0.68744   1.00
H1       0.75347    1.10053    0.81071   1.00
H1       0.74653    0.89947    0.81071   1.00
C6       0.76226    1.04234    0.85968   1.00
C6       0.73774    0.95766    0.85968   1.00
H2       0.77960    1.02358    0.87958   1.00
H2       0.78200    1.06737    0.85477   1.00
C6       0.72485    1.05724    0.87940   1.00
H2       0.72040    0.97642    0.87958   1.00
H2       0.71800    0.93263    0.85477   1.00
C6       0.77515    0.94276    0.87940   1.00
H2       0.70451    1.03274    0.88569   1.00
C6       0.73454    1.07832    0.91741   1.00
H2       0.70920    1.07760    0.85948   1.00
C6       0.76546    0.92168    0.91741   1.00
H2       0.79080    0.92240    0.85948   1.00
H2       0.79549    0.96726    0.88569   1.00
H2       0.74943    1.05822    0.93805   1.00
H2       0.75377    1.10380    0.91172   1.00
H2       0.70729    1.08898    0.93134   1.00
H2       0.75057    0.94178    0.93805   1.00
H2       0.74623    0.89620    0.91172   1.00
H2       0.79271    0.91102    0.93134   1.00
C4       0.47933    0.75000    0.75078   1.00
C4       0.52067    0.75000    0.74922   1.00
C3       0.45756    0.71484    0.75445   1.00
C3       0.54244    0.71484    0.74555   1.00
C4       0.45850    0.78579    0.74834   1.00
C4       0.54150    0.78579    0.75166   1.00
C2       0.39648    0.74937    0.74998   1.00
C2       0.60352    0.74937    0.75002   1.00
C3       0.41690    0.71471    0.75367   1.00
C3       0.58310    0.71471    0.74633   1.00
C3       0.41694    0.78459    0.74789   1.00
C3       0.58306    0.78459    0.75211   1.00
H1       0.47112    0.68687    0.75893   1.00
H1       0.52888    0.68687    0.74107   1.00
C5       0.47935    0.82179    0.74701   1.00
C5       0.52065    0.82179    0.75299   1.00
H1       0.40114    0.68744    0.75620   1.00
H1       0.59886    0.68744    0.74380   1.00
H1       0.39947    0.81071    0.74653   1.00
H1       0.60053    0.81071    0.75347   1.00
C6       0.45766    0.85968    0.73774   1.00
C6       0.54234    0.85968    0.76226   1.00
H2       0.47642    0.87958    0.72040   1.00
H2       0.43263    0.85477    0.71800   1.00
C6       0.44276    0.87940    0.77515   1.00
H2       0.52358    0.87958    0.77960   1.00
H2       0.56737    0.85477    0.78200   1.00
C6       0.55724    0.87940    0.72485   1.00
H2       0.46726    0.88569    0.79549   1.00
C6       0.42168    0.91741    0.76546   1.00
H2       0.42240    0.85948    0.79080   1.00
C6       0.57832    0.91741    0.73454   1.00
H2       0.57760    0.85948    0.70920   1.00
H2       0.53274    0.88569    0.70451   1.00
H2       0.44178    0.93805    0.75057   1.00
H2       0.39620    0.91172    0.74623   1.00
H2       0.41102    0.93134    0.79271   1.00
H2       0.55822    0.93805    0.74943   1.00
H2       0.60380    0.91172    0.75377   1.00
H2       0.58898    0.93134    0.70729   1.00
C4       1.02067    0.75000    0.74922   1.00
C4       0.97933    0.75000    0.75078   1.00
C3       1.04244    0.71484    0.74555   1.00
C3       0.95756    0.71484    0.75445   1.00
C4       1.04150    0.78579    0.75166   1.00
C4       0.95850    0.78579    0.74834   1.00
C2       1.10352    0.74937    0.75002   1.00
C2       0.89648    0.74937    0.74998   1.00
C3       1.08310    0.71471    0.74633   1.00
C3       0.91690    0.71471    0.75367   1.00
C3       1.08306    0.78459    0.75211   1.00
C3       0.91694    0.78459    0.74789   1.00
H1       1.02888    0.68687    0.74107   1.00
H1       0.97112    0.68687    0.75893   1.00
C5       1.02065    0.82179    0.75299   1.00
C5       0.97935    0.82179    0.74701   1.00
H1       1.09886    0.68744    0.74380   1.00
H1       0.90114    0.68744    0.75620   1.00
H1       1.10053    0.81071    0.75347   1.00
H1       0.89947    0.81071    0.74653   1.00
C6       1.04234    0.85968    0.76226   1.00
C6       0.95766    0.85968    0.73774   1.00
H2       1.02358    0.87958    0.77960   1.00
H2       1.06737    0.85477    0.78200   1.00
C6       1.05724    0.87940    0.72485   1.00
H2       0.97642    0.87958    0.72040   1.00
H2       0.93263    0.85477    0.71800   1.00
C6       0.94276    0.87940    0.77515   1.00
H2       1.03274    0.88569    0.70451   1.00
C6       1.07832    0.91741    0.73454   1.00
H2       1.07760    0.85948    0.70920   1.00
C6       0.92168    0.91741    0.76546   1.00
H2       0.92240    0.85948    0.79080   1.00
H2       0.96726    0.88569    0.79549   1.00
H2       1.05822    0.93805    0.74943   1.00
H2       1.10380    0.91172    0.75377   1.00
H2       1.08898    0.93134    0.70729   1.00
H2       0.94178    0.93805    0.75057   1.00
H2       0.89620    0.91172    0.74623   1.00
H2       0.91102    0.93134    0.79271   1.00
C4       0.75078    0.47933    0.75000   1.00
C4       0.74922    0.52067    0.75000   1.00
C3       0.75445    0.45756    0.71484   1.00
C3       0.74555    0.54244    0.71484   1.00
C4       0.74834    0.45850    0.78579   1.00
C4       0.75166    0.54150    0.78579   1.00
C2       0.74998    0.39648    0.74937   1.00
C2       0.75002    0.60352    0.74937   1.00
C3       0.75367    0.41690    0.71471   1.00
C3       0.74633    0.58310    0.71471   1.00
C3       0.74789    0.41694    0.78459   1.00
C3       0.75211    0.58306    0.78459   1.00
H1       0.75893    0.47112    0.68687   1.00
H1       0.74107    0.52888    0.68687   1.00
C5       0.74701    0.47935    0.82179   1.00
C5       0.75299    0.52065    0.82179   1.00
H1       0.75620    0.40114    0.68744   1.00
H1       0.74380    0.59886    0.68744   1.00
H1       0.74653    0.39947    0.81071   1.00
H1       0.75347    0.60053    0.81071   1.00
C6       0.73774    0.45766    0.85968   1.00
C6       0.76226    0.54234    0.85968   1.00
H2       0.72040    0.47642    0.87958   1.00
H2       0.71800    0.43263    0.85477   1.00
C6       0.77515    0.44276    0.87940   1.00
H2       0.77960    0.52358    0.87958   1.00
H2       0.78200    0.56737    0.85477   1.00
C6       0.72485    0.55724    0.87940   1.00
H2       0.79549    0.46726    0.88569   1.00
C6       0.76546    0.42168    0.91741   1.00
H2       0.79080    0.42240    0.85948   1.00
C6       0.73454    0.57832    0.91741   1.00
H2       0.70920    0.57760    0.85948   1.00
H2       0.70451    0.53274    0.88569   1.00
H2       0.75057    0.44178    0.93805   1.00
H2       0.74623    0.39620    0.91172   1.00
H2       0.79271    0.41102    0.93134   1.00
H2       0.74943    0.55822    0.93805   1.00
H2       0.75377    0.60380    0.91172   1.00
H2       0.70729    0.58898    0.93134   1.00
C4       0.75000    0.75078    0.47933   1.00
C4       0.75000    0.74922    0.52067   1.00
C3       0.71484    0.75445    0.45756   1.00
C3       0.71484    0.74555    0.54244   1.00
C4       0.78579    0.74834    0.45850   1.00
C4       0.78579    0.75166    0.54150   1.00
C2       0.74937    0.74998    0.39648   1.00
C2       0.74937    0.75002    0.60352   1.00
C3       0.71471    0.75367    0.41690   1.00
C3       0.71471    0.74633    0.58310   1.00
C3       0.78459    0.74789    0.41694   1.00
C3       0.78459    0.75211    0.58306   1.00
H1       0.68687    0.75893    0.47112   1.00
H1       0.68687    0.74107    0.52888   1.00
C5       0.82179    0.74701    0.47935   1.00
C5       0.82179    0.75299    0.52065   1.00
H1       0.68744    0.75620    0.40114   1.00
H1       0.68744    0.74380    0.59886   1.00
H1       0.81071    0.74653    0.39947   1.00
H1       0.81071    0.75347    0.60053   1.00
C6       0.85968    0.73774    0.45766   1.00
C6       0.85968    0.76226    0.54234   1.00
H2       0.87958    0.72040    0.47642   1.00
H2       0.85477    0.71800    0.43263   1.00
C6       0.87940    0.77515    0.44276   1.00
H2       0.87958    0.77960    0.52358   1.00
H2       0.85477    0.78200    0.56737   1.00
C6       0.87940    0.72485    0.55724   1.00
H2       0.88569    0.79549    0.46726   1.00
C6       0.91741    0.76546    0.42168   1.00
H2       0.85948    0.79080    0.42240   1.00
C6       0.91741    0.73454    0.57832   1.00
H2       0.85948    0.70920    0.57760   1.00
H2       0.88569    0.70451    0.53274   1.00
H2       0.93805    0.75057    0.44178   1.00
H2       0.91172    0.74623    0.39620   1.00
H2       0.93134    0.79271    0.41102   1.00
H2       0.93805    0.74943    0.55822   1.00
H2       0.91172    0.75377    0.60380   1.00
H2       0.93134    0.70729    0.58898   1.00
C4       0.25000    0.24922    1.02067   1.00
C4       0.25000    0.25078    0.97933   1.00
C3       0.21484    0.24555    1.04244   1.00
C3       0.21484    0.25445    0.95756   1.00
C4       0.28579    0.25166    1.04150   1.00
C4       0.28579    0.24834    0.95850   1.00
C2       0.24937    0.25002    1.10352   1.00
C2       0.24937    0.24998    0.89648   1.00
C3       0.21471    0.24633    1.08310   1.00
C3       0.21471    0.25367    0.91690   1.00
C3       0.28459    0.25211    1.08306   1.00
C3       0.28459    0.24789    0.91694   1.00
H1       0.18687    0.24107    1.02888   1.00
H1       0.18687    0.25893    0.97112   1.00
C5       0.32179    0.25299    1.02065   1.00
C5       0.32179    0.24701    0.97935   1.00
H1       0.18744    0.24380    1.09886   1.00
H1       0.18744    0.25620    0.90114   1.00
H1       0.31071    0.25347    1.10053   1.00
H1       0.31071    0.24653    0.89947   1.00
C6       0.35968    0.26226    1.04234   1.00
C6       0.35968    0.23774    0.95766   1.00
H2       0.37958    0.27960    1.02358   1.00
H2       0.35477    0.28200    1.06737   1.00
C6       0.37940    0.22485    1.05724   1.00
H2       0.37958    0.22040    0.97642   1.00
H2       0.35477    0.21800    0.93263   1.00
C6       0.37940    0.27515    0.94276   1.00
H2       0.38569    0.20451    1.03274   1.00
C6       0.41741    0.23454    1.07832   1.00
H2       0.35948    0.20920    1.07760   1.00
C6       0.41741    0.26546    0.92168   1.00
H2       0.35948    0.29080    0.92240   1.00
H2       0.38569    0.29549    0.96726   1.00
H2       0.43805    0.24943    1.05822   1.00
H2       0.41172    0.25377    1.10380   1.00
H2       0.43134    0.20729    1.08898   1.00
H2       0.43805    0.25057    0.94178   1.00
H2       0.41172    0.24623    0.89620   1.00
H2       0.43134    0.29271    0.91102   1.00
C4       0.24922    0.52067    0.75000   1.00
C4       0.25078    0.47933    0.75000   1.00
C3       0.24555    0.54244    0.71484   1.00
C3       0.25445    0.45756    0.71484   1.00
C4       0.25166    0.54150    0.78579   1.00
C4       0.24834    0.45850    0.78579   1.00
C2       0.25002    0.60352    0.74937   1.00
C2       0.24998    0.39648    0.74937   1.00
C3       0.24633    0.58310    0.71471   1.00
C3       0.25367    0.41690    0.71471   1.00
C3       0.25211    0.58306    0.78459   1.00
C3       0.24789    0.41694    0.78459   1.00
H1       0.24107    0.52888    0.68687   1.00
H1       0.25893    0.47112    0.68687   1.00
C5       0.25299    0.52065    0.82179   1.00
C5       0.24701    0.47935    0.82179   1.00
H1       0.24380    0.59886    0.68744   1.00
H1       0.25620    0.40114    0.68744   1.00
H1       0.25347    0.60053    0.81071   1.00
H1       0.24653    0.39947    0.81071   1.00
C6       0.26226    0.54234    0.85968   1.00
C6       0.23774    0.45766    0.85968   1.00
H2       0.27960    0.52358    0.87958   1.00
H2       0.28200    0.56737    0.85477   1.00
C6       0.22485    0.55724    0.87940   1.00
H2       0.22040    0.47642    0.87958   1.00
H2       0.21800    0.43263    0.85477   1.00
C6       0.27515    0.44276    0.87940   1.00
H2       0.20451    0.53274    0.88569   1.00
C6       0.23454    0.57832    0.91741   1.00
H2       0.20920    0.57760    0.85948   1.00
C6       0.26546    0.42168    0.91741   1.00
H2       0.29080    0.42240    0.85948   1.00
H2       0.29549    0.46726    0.88569   1.00
H2       0.24943    0.55822    0.93805   1.00
H2       0.25377    0.60380    0.91172   1.00
H2       0.20729    0.58898    0.93134   1.00
H2       0.25057    0.44178    0.93805   1.00
H2       0.24623    0.39620    0.91172   1.00
H2       0.29271    0.41102    0.93134   1.00
C4       -0.02067   0.25000    0.75078   1.00
C4       0.02067    0.25000    0.74922   1.00
C3       -0.04244   0.21484    0.75445   1.00
C3       0.04244    0.21484    0.74555   1.00
C4       -0.04150   0.28579    0.74834   1.00
C4       0.04150    0.28579    0.75166   1.00
C2       -0.10352   0.24937    0.74998   1.00
C2       0.10352    0.24937    0.75002   1.00
C3       -0.08310   0.21471    0.75367   1.00
C3       0.08310    0.21471    0.74633   1.00
C3       -0.08306   0.28459    0.74789   1.00
C3       0.08306    0.28459    0.75211   1.00
H1       -0.02888   0.18687    0.75893   1.00
H1       0.02888    0.18687    0.74107   1.00
C5       -0.02065   0.32179    0.74701   1.00
C5       0.02065    0.32179    0.75299   1.00
H1       -0.09886   0.18744    0.75620   1.00
H1       0.09886    0.18744    0.74380   1.00
H1       -0.10053   0.31071    0.74653   1.00
H1       0.10053    0.31071    0.75347   1.00
C6       -0.04234   0.35968    0.73774   1.00
C6       0.04234    0.35968    0.76226   1.00
H2       -0.02358   0.37958    0.72040   1.00
H2       -0.06737   0.35477    0.71800   1.00
C6       -0.05724   0.37940    0.77515   1.00
H2       0.02358    0.37958    0.77960   1.00
H2       0.06737    0.35477    0.78200   1.00
C6       0.05724    0.37940    0.72485   1.00
H2       -0.03274   0.38569    0.79549   1.00
C6       -0.07832   0.41741    0.76546   1.00
H2       -0.07760   0.35948    0.79080   1.00
C6       0.07832    0.41741    0.73454   1.00
H2       0.07760    0.35948    0.70920   1.00
H2       0.03274    0.38569    0.70451   1.00
H2       -0.05822   0.43805    0.75057   1.00
H2       -0.10380   0.41172    0.74623   1.00
H2       -0.08898   0.43134    0.79271   1.00
H2       0.05822    0.43805    0.74943   1.00
H2       0.10380    0.41172    0.75377   1.00
H2       0.08898    0.43134    0.70729   1.00
C4       0.52067    0.25000    0.74922   1.00
C4       0.47933    0.25000    0.75078   1.00
C3       0.54244    0.21484    0.74555   1.00
C3       0.45756    0.21484    0.75445   1.00
C4       0.54150    0.28579    0.75166   1.00
C4       0.45850    0.28579    0.74834   1.00
C2       0.60352    0.24937    0.75002   1.00
C2       0.39648    0.24937    0.74998   1.00
C3       0.58310    0.21471    0.74633   1.00
C3       0.41690    0.21471    0.75367   1.00
C3       0.58306    0.28459    0.75211   1.00
C3       0.41694    0.28459    0.74789   1.00
H1       0.52888    0.18687    0.74107   1.00
H1       0.47112    0.18687    0.75893   1.00
C5       0.52065    0.32179    0.75299   1.00
C5       0.47935    0.32179    0.74701   1.00
H1       0.59886    0.18744    0.74380   1.00
H1       0.40114    0.18744    0.75620   1.00
H1       0.60053    0.31071    0.75347   1.00
H1       0.39947    0.31071    0.74653   1.00
C6       0.54234    0.35968    0.76226   1.00
C6       0.45766    0.35968    0.73774   1.00
H2       0.52358    0.37958    0.77960   1.00
H2       0.56737    0.35477    0.78200   1.00
C6       0.55724    0.37940    0.72485   1.00
H2       0.47642    0.37958    0.72040   1.00
H2       0.43263    0.35477    0.71800   1.00
C6       0.44276    0.37940    0.77515   1.00
H2       0.53274    0.38569    0.70451   1.00
C6       0.57832    0.41741    0.73454   1.00
H2       0.57760    0.35948    0.70920   1.00
C6       0.42168    0.41741    0.76546   1.00
H2       0.42240    0.35948    0.79080   1.00
H2       0.46726    0.38569    0.79549   1.00
H2       0.55822    0.43805    0.74943   1.00
H2       0.60380    0.41172    0.75377   1.00
H2       0.58898    0.43134    0.70729   1.00
H2       0.44178    0.43805    0.75057   1.00
H2       0.39620    0.41172    0.74623   1.00
H2       0.41102    0.43134    0.79271   1.00
C4       0.25078    -0.02067   0.75000   1.00
C4       0.24922    0.02067    0.75000   1.00
C3       0.25445    -0.04244   0.71484   1.00
C3       0.24555    0.04244    0.71484   1.00
C4       0.24834    -0.04150   0.78579   1.00
C4       0.25166    0.04150    0.78579   1.00
C2       0.24998    -0.10352   0.74937   1.00
C2       0.25002    0.10352    0.74937   1.00
C3       0.25367    -0.08310   0.71471   1.00
C3       0.24633    0.08310    0.71471   1.00
C3       0.24789    -0.08306   0.78459   1.00
C3       0.25211    0.08306    0.78459   1.00
H1       0.25893    -0.02888   0.68687   1.00
H1       0.24107    0.02888    0.68687   1.00
C5       0.24701    -0.02065   0.82179   1.00
C5       0.25299    0.02065    0.82179   1.00
H1       0.25620    -0.09886   0.68744   1.00
H1       0.24380    0.09886    0.68744   1.00
H1       0.24653    -0.10053   0.81071   1.00
H1       0.25347    0.10053    0.81071   1.00
C6       0.23774    -0.04234   0.85968   1.00
C6       0.26226    0.04234    0.85968   1.00
H2       0.22040    -0.02358   0.87958   1.00
H2       0.21800    -0.06737   0.85477   1.00
C6       0.27515    -0.05724   0.87940   1.00
H2       0.27960    0.02358    0.87958   1.00
H2       0.28200    0.06737    0.85477   1.00
C6       0.22485    0.05724    0.87940   1.00
H2       0.29549    -0.03274   0.88569   1.00
C6       0.26546    -0.07832   0.91741   1.00
H2       0.29080    -0.07760   0.85948   1.00
C6       0.23454    0.07832    0.91741   1.00
H2       0.20920    0.07760    0.85948   1.00
H2       0.20451    0.03274    0.88569   1.00
H2       0.25057    -0.05822   0.93805   1.00
H2       0.24623    -0.10380   0.91172   1.00
H2       0.29271    -0.08898   0.93134   1.00
H2       0.24943    0.05822    0.93805   1.00
H2       0.25377    0.10380    0.91172   1.00
H2       0.20729    0.08898    0.93134   1.00
C4       0.25000    0.25078    0.47933   1.00
C4       0.25000    0.24922    0.52067   1.00
C3       0.21484    0.25445    0.45756   1.00
C3       0.21484    0.24555    0.54244   1.00
C4       0.28579    0.24834    0.45850   1.00
C4       0.28579    0.25166    0.54150   1.00
C2       0.24937    0.24998    0.39648   1.00
C2       0.24937    0.25002    0.60352   1.00
C3       0.21471    0.25367    0.41690   1.00
C3       0.21471    0.24633    0.58310   1.00
C3       0.28459    0.24789    0.41694   1.00
C3       0.28459    0.25211    0.58306   1.00
H1       0.18687    0.25893    0.47112   1.00
H1       0.18687    0.24107    0.52888   1.00
C5       0.32179    0.24701    0.47935   1.00
C5       0.32179    0.25299    0.52065   1.00
H1       0.18744    0.25620    0.40114   1.00
H1       0.18744    0.24380    0.59886   1.00
H1       0.31071    0.24653    0.39947   1.00
H1       0.31071    0.25347    0.60053   1.00
C6       0.35968    0.23774    0.45766   1.00
C6       0.35968    0.26226    0.54234   1.00
H2       0.37958    0.22040    0.47642   1.00
H2       0.35477    0.21800    0.43263   1.00
C6       0.37940    0.27515    0.44276   1.00
H2       0.37958    0.27960    0.52358   1.00
H2       0.35477    0.28200    0.56737   1.00
C6       0.37940    0.22485    0.55724   1.00
H2       0.38569    0.29549    0.46726   1.00
C6       0.41741    0.26546    0.42168   1.00
H2       0.35948    0.29080    0.42240   1.00
C6       0.41741    0.23454    0.57832   1.00
H2       0.35948    0.20920    0.57760   1.00
H2       0.38569    0.20451    0.53274   1.00
H2       0.43805    0.25057    0.44178   1.00
H2       0.41172    0.24623    0.39620   1.00
H2       0.43134    0.29271    0.41102   1.00
H2       0.43805    0.24943    0.55822   1.00
H2       0.41172    0.25377    0.60380   1.00
H2       0.43134    0.20729    0.58898   1.00
C4       0.25000    0.74922    0.52067   1.00
C4       0.25000    0.75078    0.47933   1.00
C3       0.21484    0.74555    0.54244   1.00
C3       0.21484    0.75445    0.45756   1.00
C4       0.28579    0.75166    0.54150   1.00
C4       0.28579    0.74834    0.45850   1.00
C2       0.24937    0.75002    0.60352   1.00
C2       0.24937    0.74998    0.39648   1.00
C3       0.21471    0.74633    0.58310   1.00
C3       0.21471    0.75367    0.41690   1.00
C3       0.28459    0.75211    0.58306   1.00
C3       0.28459    0.74789    0.41694   1.00
H1       0.18687    0.74107    0.52888   1.00
H1       0.18687    0.75893    0.47112   1.00
C5       0.32179    0.75299    0.52065   1.00
C5       0.32179    0.74701    0.47935   1.00
H1       0.18744    0.74380    0.59886   1.00
H1       0.18744    0.75620    0.40114   1.00
H1       0.31071    0.75347    0.60053   1.00
H1       0.31071    0.74653    0.39947   1.00
C6       0.35968    0.76226    0.54234   1.00
C6       0.35968    0.73774    0.45766   1.00
H2       0.37958    0.77960    0.52358   1.00
H2       0.35477    0.78200    0.56737   1.00
C6       0.37940    0.72485    0.55724   1.00
H2       0.37958    0.72040    0.47642   1.00
H2       0.35477    0.71800    0.43263   1.00
C6       0.37940    0.77515    0.44276   1.00
H2       0.38569    0.70451    0.53274   1.00
C6       0.41741    0.73454    0.57832   1.00
H2       0.35948    0.70920    0.57760   1.00
C6       0.41741    0.76546    0.42168   1.00
H2       0.35948    0.79080    0.42240   1.00
H2       0.38569    0.79549    0.46726   1.00
H2       0.43805    0.74943    0.55822   1.00
H2       0.41172    0.75377    0.60380   1.00
H2       0.43134    0.70729    0.58898   1.00
H2       0.43805    0.75057    0.44178   1.00
H2       0.41172    0.74623    0.39620   1.00
H2       0.43134    0.79271    0.41102   1.00
C4       0.24922    1.02067    0.25000   1.00
C4       0.25078    0.97933    0.25000   1.00
C3       0.24555    1.04244    0.21484   1.00
C3       0.25445    0.95756    0.21484   1.00
C4       0.25166    1.04150    0.28579   1.00
C4       0.24834    0.95850    0.28579   1.00
C2       0.25002    1.10352    0.24937   1.00
C2       0.24998    0.89648    0.24937   1.00
C3       0.24633    1.08310    0.21471   1.00
C3       0.25367    0.91690    0.21471   1.00
C3       0.25211    1.08306    0.28459   1.00
C3       0.24789    0.91694    0.28459   1.00
H1       0.24107    1.02888    0.18687   1.00
H1       0.25893    0.97112    0.18687   1.00
C5       0.25299    1.02065    0.32179   1.00
C5       0.24701    0.97935    0.32179   1.00
H1       0.24380    1.09886    0.18744   1.00
H1       0.25620    0.90114    0.18744   1.00
H1       0.25347    1.10053    0.31071   1.00
H1       0.24653    0.89947    0.31071   1.00
C6       0.26226    1.04234    0.35968   1.00
C6       0.23774    0.95766    0.35968   1.00
H2       0.27960    1.02358    0.37958   1.00
H2       0.28200    1.06737    0.35477   1.00
C6       0.22485    1.05724    0.37940   1.00
H2       0.22040    0.97642    0.37958   1.00
H2       0.21800    0.93263    0.35477   1.00
C6       0.27515    0.94276    0.37940   1.00
H2       0.20451    1.03274    0.38569   1.00
C6       0.23454    1.07832    0.41741   1.00
H2       0.20920    1.07760    0.35948   1.00
C6       0.26546    0.92168    0.41741   1.00
H2       0.29080    0.92240    0.35948   1.00
H2       0.29549    0.96726    0.38569   1.00
H2       0.24943    1.05822    0.43805   1.00
H2       0.25377    1.10380    0.41172   1.00
H2       0.20729    1.08898    0.43134   1.00
H2       0.25057    0.94178    0.43805   1.00
H2       0.24623    0.89620    0.41172   1.00
H2       0.29271    0.91102    0.43134   1.00
C4       -0.02067   0.75000    0.25078   1.00
C4       0.02067    0.75000    0.24922   1.00
C3       -0.04244   0.71484    0.25445   1.00
C3       0.04244    0.71484    0.24555   1.00
C4       -0.04150   0.78579    0.24834   1.00
C4       0.04150    0.78579    0.25166   1.00
C2       -0.10352   0.74937    0.24998   1.00
C2       0.10352    0.74937    0.25002   1.00
C3       -0.08310   0.71471    0.25367   1.00
C3       0.08310    0.71471    0.24633   1.00
C3       -0.08306   0.78459    0.24789   1.00
C3       0.08306    0.78459    0.25211   1.00
H1       -0.02888   0.68687    0.25893   1.00
H1       0.02888    0.68687    0.24107   1.00
C5       -0.02065   0.82179    0.24701   1.00
C5       0.02065    0.82179    0.25299   1.00
H1       -0.09886   0.68744    0.25620   1.00
H1       0.09886    0.68744    0.24380   1.00
H1       -0.10053   0.81071    0.24653   1.00
H1       0.10053    0.81071    0.25347   1.00
C6       -0.04234   0.85968    0.23774   1.00
C6       0.04234    0.85968    0.26226   1.00
H2       -0.02358   0.87958    0.22040   1.00
H2       -0.06737   0.85477    0.21800   1.00
C6       -0.05724   0.87940    0.27515   1.00
H2       0.02358    0.87958    0.27960   1.00
H2       0.06737    0.85477    0.28200   1.00
C6       0.05724    0.87940    0.22485   1.00
H2       -0.03274   0.88569    0.29549   1.00
C6       -0.07832   0.91741    0.26546   1.00
H2       -0.07760   0.85948    0.29080   1.00
C6       0.07832    0.91741    0.23454   1.00
H2       0.07760    0.85948    0.20920   1.00
H2       0.03274    0.88569    0.20451   1.00
H2       -0.05822   0.93805    0.25057   1.00
H2       -0.10380   0.91172    0.24623   1.00
H2       -0.08898   0.93134    0.29271   1.00
H2       0.05822    0.93805    0.24943   1.00
H2       0.10380    0.91172    0.25377   1.00
H2       0.08898    0.93134    0.20729   1.00
C4       0.52067    0.75000    0.24922   1.00
C4       0.47933    0.75000    0.25078   1.00
C3       0.54244    0.71484    0.24555   1.00
C3       0.45756    0.71484    0.25445   1.00
C4       0.54150    0.78579    0.25166   1.00
C4       0.45850    0.78579    0.24834   1.00
C2       0.60352    0.74937    0.25002   1.00
C2       0.39648    0.74937    0.24998   1.00
C3       0.58310    0.71471    0.24633   1.00
C3       0.41690    0.71471    0.25367   1.00
C3       0.58306    0.78459    0.25211   1.00
C3       0.41694    0.78459    0.24789   1.00
H1       0.52888    0.68687    0.24107   1.00
H1       0.47112    0.68687    0.25893   1.00
C5       0.52065    0.82179    0.25299   1.00
C5       0.47935    0.82179    0.24701   1.00
H1       0.59886    0.68744    0.24380   1.00
H1       0.40114    0.68744    0.25620   1.00
H1       0.60053    0.81071    0.25347   1.00
H1       0.39947    0.81071    0.24653   1.00
C6       0.54234    0.85968    0.26226   1.00
C6       0.45766    0.85968    0.23774   1.00
H2       0.52358    0.87958    0.27960   1.00
H2       0.56737    0.85477    0.28200   1.00
C6       0.55724    0.87940    0.22485   1.00
H2       0.47642    0.87958    0.22040   1.00
H2       0.43263    0.85477    0.21800   1.00
C6       0.44276    0.87940    0.27515   1.00
H2       0.53274    0.88569    0.20451   1.00
C6       0.57832    0.91741    0.23454   1.00
H2       0.57760    0.85948    0.20920   1.00
C6       0.42168    0.91741    0.26546   1.00
H2       0.42240    0.85948    0.29080   1.00
H2       0.46726    0.88569    0.29549   1.00
H2       0.55822    0.93805    0.24943   1.00
H2       0.60380    0.91172    0.25377   1.00
H2       0.58898    0.93134    0.20729   1.00
H2       0.44178    0.93805    0.25057   1.00
H2       0.39620    0.91172    0.24623   1.00
H2       0.41102    0.93134    0.29271   1.00
C4       0.25078    0.47933    0.25000   1.00
C4       0.24922    0.52067    0.25000   1.00
C3       0.25445    0.45756    0.21484   1.00
C3       0.24555    0.54244    0.21484   1.00
C4       0.24834    0.45850    0.28579   1.00
C4       0.25166    0.54150    0.28579   1.00
C2       0.24998    0.39648    0.24937   1.00
C2       0.25002    0.60352    0.24937   1.00
C3       0.25367    0.41690    0.21471   1.00
C3       0.24633    0.58310    0.21471   1.00
C3       0.24789    0.41694    0.28459   1.00
C3       0.25211    0.58306    0.28459   1.00
H1       0.25893    0.47112    0.18687   1.00
H1       0.24107    0.52888    0.18687   1.00
C5       0.24701    0.47935    0.32179   1.00
C5       0.25299    0.52065    0.32179   1.00
H1       0.25620    0.40114    0.18744   1.00
H1       0.24380    0.59886    0.18744   1.00
H1       0.24653    0.39947    0.31071   1.00
H1       0.25347    0.60053    0.31071   1.00
C6       0.23774    0.45766    0.35968   1.00
C6       0.26226    0.54234    0.35968   1.00
H2       0.22040    0.47642    0.37958   1.00
H2       0.21800    0.43263    0.35477   1.00
C6       0.27515    0.44276    0.37940   1.00
H2       0.27960    0.52358    0.37958   1.00
H2       0.28200    0.56737    0.35477   1.00
C6       0.22485    0.55724    0.37940   1.00
H2       0.29549    0.46726    0.38569   1.00
C6       0.26546    0.42168    0.41741   1.00
H2       0.29080    0.42240    0.35948   1.00
C6       0.23454    0.57832    0.41741   1.00
H2       0.20920    0.57760    0.35948   1.00
H2       0.20451    0.53274    0.38569   1.00
H2       0.25057    0.44178    0.43805   1.00
H2       0.24623    0.39620    0.41172   1.00
H2       0.29271    0.41102    0.43134   1.00
H2       0.24943    0.55822    0.43805   1.00
H2       0.25377    0.60380    0.41172   1.00
H2       0.20729    0.58898    0.43134   1.00
C4       0.25000    0.75078    -0.02067   1.00
C4       0.25000    0.74922    0.02067   1.00
C3       0.21484    0.75445    -0.04244   1.00
C3       0.21484    0.74555    0.04244   1.00
C4       0.28579    0.74834    -0.04150   1.00
C4       0.28579    0.75166    0.04150   1.00
C2       0.24937    0.74998    -0.10352   1.00
C2       0.24937    0.75002    0.10352   1.00
C3       0.21471    0.75367    -0.08310   1.00
C3       0.21471    0.74633    0.08310   1.00
C3       0.28459    0.74789    -0.08306   1.00
C3       0.28459    0.75211    0.08306   1.00
H1       0.18687    0.75893    -0.02888   1.00
H1       0.18687    0.74107    0.02888   1.00
C5       0.32179    0.74701    -0.02065   1.00
C5       0.32179    0.75299    0.02065   1.00
H1       0.18744    0.75620    -0.09886   1.00
H1       0.18744    0.74380    0.09886   1.00
H1       0.31071    0.74653    -0.10053   1.00
H1       0.31071    0.75347    0.10053   1.00
C6       0.35968    0.73774    -0.04234   1.00
C6       0.35968    0.76226    0.04234   1.00
H2       0.37958    0.72040    -0.02358   1.00
H2       0.35477    0.71800    -0.06737   1.00
C6       0.37940    0.77515    -0.05724   1.00
H2       0.37958    0.77960    0.02358   1.00
H2       0.35477    0.78200    0.06737   1.00
C6       0.37940    0.72485    0.05724   1.00
H2       0.38569    0.79549    -0.03274   1.00
C6       0.41741    0.76546    -0.07832   1.00
H2       0.35948    0.79080    -0.07760   1.00
C6       0.41741    0.73454    0.07832   1.00
H2       0.35948    0.70920    0.07760   1.00
H2       0.38569    0.70451    0.03274   1.00
H2       0.43805    0.75057    -0.05822   1.00
H2       0.41172    0.74623    -0.10380   1.00
H2       0.43134    0.79271    -0.08898   1.00
H2       0.43805    0.74943    0.05822   1.00
H2       0.41172    0.75377    0.10380   1.00
H2       0.43134    0.70729    0.08898   1.00
C4       0.75000    0.24922    0.52067   1.00
C4       0.75000    0.25078    0.47933   1.00
C3       0.71484    0.24555    0.54244   1.00
C3       0.71484    0.25445    0.45756   1.00
C4       0.78579    0.25166    0.54150   1.00
C4       0.78579    0.24834    0.45850   1.00
C2       0.74937    0.25002    0.60352   1.00
C2       0.74937    0.24998    0.39648   1.00
C3       0.71471    0.24633    0.58310   1.00
C3       0.71471    0.25367    0.41690   1.00
C3       0.78459    0.25211    0.58306   1.00
C3       0.78459    0.24789    0.41694   1.00
H1       0.68687    0.24107    0.52888   1.00
H1       0.68687    0.25893    0.47112   1.00
C5       0.82179    0.25299    0.52065   1.00
C5       0.82179    0.24701    0.47935   1.00
H1       0.68744    0.24380    0.59886   1.00
H1       0.68744    0.25620    0.40114   1.00
H1       0.81071    0.25347    0.60053   1.00
H1       0.81071    0.24653    0.39947   1.00
C6       0.85968    0.26226    0.54234   1.00
C6       0.85968    0.23774    0.45766   1.00
H2       0.87958    0.27960    0.52358   1.00
H2       0.85477    0.28200    0.56737   1.00
C6       0.87940    0.22485    0.55724   1.00
H2       0.87958    0.22040    0.47642   1.00
H2       0.85477    0.21800    0.43263   1.00
C6       0.87940    0.27515    0.44276   1.00
H2       0.88569    0.20451    0.53274   1.00
C6       0.91741    0.23454    0.57832   1.00
H2       0.85948    0.20920    0.57760   1.00
C6       0.91741    0.26546    0.42168   1.00
H2       0.85948    0.29080    0.42240   1.00
H2       0.88569    0.29549    0.46726   1.00
H2       0.93805    0.24943    0.55822   1.00
H2       0.91172    0.25377    0.60380   1.00
H2       0.93134    0.20729    0.58898   1.00
H2       0.93805    0.25057    0.44178   1.00
H2       0.91172    0.24623    0.39620   1.00
H2       0.93134    0.29271    0.41102   1.00
C4       0.74922    0.52067    0.25000   1.00
C4       0.75078    0.47933    0.25000   1.00
C3       0.74555    0.54244    0.21484   1.00
C3       0.75445    0.45756    0.21484   1.00
C4       0.75166    0.54150    0.28579   1.00
C4       0.74834    0.45850    0.28579   1.00
C2       0.75002    0.60352    0.24937   1.00
C2       0.74998    0.39648    0.24937   1.00
C3       0.74633    0.58310    0.21471   1.00
C3       0.75367    0.41690    0.21471   1.00
C3       0.75211    0.58306    0.28459   1.00
C3       0.74789    0.41694    0.28459   1.00
H1       0.74107    0.52888    0.18687   1.00
H1       0.75893    0.47112    0.18687   1.00
C5       0.75299    0.52065    0.32179   1.00
C5       0.74701    0.47935    0.32179   1.00
H1       0.74380    0.59886    0.18744   1.00
H1       0.75620    0.40114    0.18744   1.00
H1       0.75347    0.60053    0.31071   1.00
H1       0.74653    0.39947    0.31071   1.00
C6       0.76226    0.54234    0.35968   1.00
C6       0.73774    0.45766    0.35968   1.00
H2       0.77960    0.52358    0.37958   1.00
H2       0.78200    0.56737    0.35477   1.00
C6       0.72485    0.55724    0.37940   1.00
H2       0.72040    0.47642    0.37958   1.00
H2       0.71800    0.43263    0.35477   1.00
C6       0.77515    0.44276    0.37940   1.00
H2       0.70451    0.53274    0.38569   1.00
C6       0.73454    0.57832    0.41741   1.00
H2       0.70920    0.57760    0.35948   1.00
C6       0.76546    0.42168    0.41741   1.00
H2       0.79080    0.42240    0.35948   1.00
H2       0.79549    0.46726    0.38569   1.00
H2       0.74943    0.55822    0.43805   1.00
H2       0.75377    0.60380    0.41172   1.00
H2       0.70729    0.58898    0.43134   1.00
H2       0.75057    0.44178    0.43805   1.00
H2       0.74623    0.39620    0.41172   1.00
H2       0.79271    0.41102    0.43134   1.00
C4       0.47933    0.25000    0.25078   1.00
C4       0.52067    0.25000    0.24922   1.00
C3       0.45756    0.21484    0.25445   1.00
C3       0.54244    0.21484    0.24555   1.00
C4       0.45850    0.28579    0.24834   1.00
C4       0.54150    0.28579    0.25166   1.00
C2       0.39648    0.24937    0.24998   1.00
C2       0.60352    0.24937    0.25002   1.00
C3       0.41690    0.21471    0.25367   1.00
C3       0.58310    0.21471    0.24633   1.00
C3       0.41694    0.28459    0.24789   1.00
C3       0.58306    0.28459    0.25211   1.00
H1       0.47112    0.18687    0.25893   1.00
H1       0.52888    0.18687    0.24107   1.00
C5       0.47935    0.32179    0.24701   1.00
C5       0.52065    0.32179    0.25299   1.00
H1       0.40114    0.18744    0.25620   1.00
H1       0.59886    0.18744    0.24380   1.00
H1       0.39947    0.31071    0.24653   1.00
H1       0.60053    0.31071    0.25347   1.00
C6       0.45766    0.35968    0.23774   1.00
C6       0.54234    0.35968    0.26226   1.00
H2       0.47642    0.37958    0.22040   1.00
H2       0.43263    0.35477    0.21800   1.00
C6       0.44276    0.37940    0.27515   1.00
H2       0.52358    0.37958    0.27960   1.00
H2       0.56737    0.35477    0.28200   1.00
C6       0.55724    0.37940    0.22485   1.00
H2       0.46726    0.38569    0.29549   1.00
C6       0.42168    0.41741    0.26546   1.00
H2       0.42240    0.35948    0.29080   1.00
C6       0.57832    0.41741    0.23454   1.00
H2       0.57760    0.35948    0.20920   1.00
H2       0.53274    0.38569    0.20451   1.00
H2       0.44178    0.43805    0.25057   1.00
H2       0.39620    0.41172    0.24623   1.00
H2       0.41102    0.43134    0.29271   1.00
H2       0.55822    0.43805    0.24943   1.00
H2       0.60380    0.41172    0.25377   1.00
H2       0.58898    0.43134    0.20729   1.00
C4       1.02067    0.25000    0.24922   1.00
C4       0.97933    0.25000    0.25078   1.00
C3       1.04244    0.21484    0.24555   1.00
C3       0.95756    0.21484    0.25445   1.00
C4       1.04150    0.28579    0.25166   1.00
C4       0.95850    0.28579    0.24834   1.00
C2       1.10352    0.24937    0.25002   1.00
C2       0.89648    0.24937    0.24998   1.00
C3       1.08310    0.21471    0.24633   1.00
C3       0.91690    0.21471    0.25367   1.00
C3       1.08306    0.28459    0.25211   1.00
C3       0.91694    0.28459    0.24789   1.00
H1       1.02888    0.18687    0.24107   1.00
H1       0.97112    0.18687    0.25893   1.00
C5       1.02065    0.32179    0.25299   1.00
C5       0.97935    0.32179    0.24701   1.00
H1       1.09886    0.18744    0.24380   1.00
H1       0.90114    0.18744    0.25620   1.00
H1       1.10053    0.31071    0.25347   1.00
H1       0.89947    0.31071    0.24653   1.00
C6       1.04234    0.35968    0.26226   1.00
C6       0.95766    0.35968    0.23774   1.00
H2       1.02358    0.37958    0.27960   1.00
H2       1.06737    0.35477    0.28200   1.00
C6       1.05724    0.37940    0.22485   1.00
H2       0.97642    0.37958    0.22040   1.00
H2       0.93263    0.35477    0.21800   1.00
C6       0.94276    0.37940    0.27515   1.00
H2       1.03274    0.38569    0.20451   1.00
C6       1.07832    0.41741    0.23454   1.00
H2       1.07760    0.35948    0.20920   1.00
C6       0.92168    0.41741    0.26546   1.00
H2       0.92240    0.35948    0.29080   1.00
H2       0.96726    0.38569    0.29549   1.00
H2       1.05822    0.43805    0.24943   1.00
H2       1.10380    0.41172    0.25377   1.00
H2       1.08898    0.43134    0.20729   1.00
H2       0.94178    0.43805    0.25057   1.00
H2       0.89620    0.41172    0.24623   1.00
H2       0.91102    0.43134    0.29271   1.00
C4       0.75078    -0.02067   0.25000   1.00
C4       0.74922    0.02067    0.25000   1.00
C3       0.75445    -0.04244   0.21484   1.00
C3       0.74555    0.04244    0.21484   1.00
C4       0.74834    -0.04150   0.28579   1.00
C4       0.75166    0.04150    0.28579   1.00
C2       0.74998    -0.10352   0.24937   1.00
C2       0.75002    0.10352    0.24937   1.00
C3       0.75367    -0.08310   0.21471   1.00
C3       0.74633    0.08310    0.21471   1.00
C3       0.74789    -0.08306   0.28459   1.00
C3       0.75211    0.08306    0.28459   1.00
H1       0.75893    -0.02888   0.18687   1.00
H1       0.74107    0.02888    0.18687   1.00
C5       0.74701    -0.02065   0.32179   1.00
C5       0.75299    0.02065    0.32179   1.00
H1       0.75620    -0.09886   0.18744   1.00
H1       0.74380    0.09886    0.18744   1.00
H1       0.74653    -0.10053   0.31071   1.00
H1       0.75347    0.10053    0.31071   1.00
C6       0.73774    -0.04234   0.35968   1.00
C6       0.76226    0.04234    0.35968   1.00
H2       0.72040    -0.02358   0.37958   1.00
H2       0.71800    -0.06737   0.35477   1.00
C6       0.77515    -0.05724   0.37940   1.00
H2       0.77960    0.02358    0.37958   1.00
H2       0.78200    0.06737    0.35477   1.00
C6       0.72485    0.05724    0.37940   1.00
H2       0.79549    -0.03274   0.38569   1.00
C6       0.76546    -0.07832   0.41741   1.00
H2       0.79080    -0.07760   0.35948   1.00
C6       0.73454    0.07832    0.41741   1.00
H2       0.70920    0.07760    0.35948   1.00
H2       0.70451    0.03274    0.38569   1.00
H2       0.75057    -0.05822   0.43805   1.00
H2       0.74623    -0.10380   0.41172   1.00
H2       0.79271    -0.08898   0.43134   1.00
H2       0.74943    0.05822    0.43805   1.00
H2       0.75377    0.10380    0.41172   1.00
H2       0.70729    0.08898    0.43134   1.00
C4       0.75000    0.25078    -0.02067   1.00
C4       0.75000    0.24922    0.02067   1.00
C3       0.71484    0.25445    -0.04244   1.00
C3       0.71484    0.24555    0.04244   1.00
C4       0.78579    0.24834    -0.04150   1.00
C4       0.78579    0.25166    0.04150   1.00
C2       0.74937    0.24998    -0.10352   1.00
C2       0.74937    0.25002    0.10352   1.00
C3       0.71471    0.25367    -0.08310   1.00
C3       0.71471    0.24633    0.08310   1.00
C3       0.78459    0.24789    -0.08306   1.00
C3       0.78459    0.25211    0.08306   1.00
H1       0.68687    0.25893    -0.02888   1.00
H1       0.68687    0.24107    0.02888   1.00
C5       0.82179    0.24701    -0.02065   1.00
C5       0.82179    0.25299    0.02065   1.00
H1       0.68744    0.25620    -0.09886   1.00
H1       0.68744    0.24380    0.09886   1.00
H1       0.81071    0.24653    -0.10053   1.00
H1       0.81071    0.25347    0.10053   1.00
C6       0.85968    0.23774    -0.04234   1.00
C6       0.85968    0.26226    0.04234   1.00
H2       0.87958    0.22040    -0.02358   1.00
H2       0.85477    0.21800    -0.06737   1.00
C6       0.87940    0.27515    -0.05724   1.00
H2       0.87958    0.27960    0.02358   1.00
H2       0.85477    0.28200    0.06737   1.00
C6       0.87940    0.22485    0.05724   1.00
H2       0.88569    0.29549    -0.03274   1.00
C6       0.91741    0.26546    -0.07832   1.00
H2       0.85948    0.29080    -0.07760   1.00
C6       0.91741    0.23454    0.07832   1.00
H2       0.85948    0.20920    0.07760   1.00
H2       0.88569    0.20451    0.03274   1.00
H2       0.93805    0.25057    -0.05822   1.00
H2       0.91172    0.24623    -0.10380   1.00
H2       0.93134    0.29271    -0.08898   1.00
H2       0.93805    0.24943    0.05822   1.00
H2       0.91172    0.25377    0.10380   1.00
H2       0.93134    0.20729    0.08898   1.00
C4       1.00000    0.99922    1.27067   1.00
C4       1.00000    1.00078    1.22933   1.00
C3       0.96484    0.99555    1.29244   1.00
C3       0.96484    1.00445    1.20756   1.00
C4       1.03579    1.00166    1.29150   1.00
C4       1.03579    0.99834    1.20850   1.00
C2       0.99937    1.00002    1.35352   1.00
C2       0.99937    0.99998    1.14648   1.00
C3       0.96471    0.99633    1.33310   1.00
C3       0.96471    1.00367    1.16690   1.00
C3       1.03459    1.00211    1.33306   1.00
C3       1.03459    0.99789    1.16694   1.00
H1       0.93687    0.99107    1.27888   1.00
H1       0.93687    1.00893    1.22112   1.00
C5       1.07179    1.00299    1.27065   1.00
C5       1.07179    0.99701    1.22935   1.00
H1       0.93744    0.99380    1.34886   1.00
H1       0.93744    1.00620    1.15114   1.00
H1       1.06071    1.00347    1.35053   1.00
H1       1.06071    0.99653    1.14947   1.00
C6       1.10968    1.01226    1.29234   1.00
C6       1.10968    0.98774    1.20766   1.00
H2       1.12958    1.02960    1.27358   1.00
H2       1.10477    1.03200    1.31737   1.00
C6       1.12940    0.97485    1.30724   1.00
H2       1.12958    0.97040    1.22642   1.00
H2       1.10477    0.96800    1.18263   1.00
C6       1.12940    1.02515    1.19276   1.00
H2       1.13569    0.95451    1.28274   1.00
C6       1.16741    0.98454    1.32832   1.00
H2       1.10948    0.95920    1.32760   1.00
C6       1.16741    1.01546    1.17168   1.00
H2       1.10948    1.04080    1.17240   1.00
H2       1.13569    1.04549    1.21726   1.00
H2       1.18805    0.99943    1.30822   1.00
H2       1.16172    1.00377    1.35380   1.00
H2       1.18134    0.95729    1.33898   1.00
H2       1.18805    1.00057    1.19178   1.00
H2       1.16172    0.99623    1.14620   1.00
H2       1.18134    1.04271    1.16102   1.00
C4       0.99922    1.27067    1.00000   1.00
C4       1.00078    1.22933    1.00000   1.00
C3       0.99555    1.29244    0.96484   1.00
C3       1.00445    1.20756    0.96484   1.00
C4       1.00166    1.29150    1.03579   1.00
C4       0.99834    1.20850    1.03579   1.00
C2       1.00002    1.35352    0.99937   1.00
C2       0.99998    1.14648    0.99937   1.00
C3       0.99633    1.33310    0.96471   1.00
C3       1.00367    1.16690    0.96471   1.00
C3       1.00211    1.33306    1.03459   1.00
C3       0.99789    1.16694    1.03459   1.00
H1       0.99107    1.27888    0.93687   1.00
H1       1.00893    1.22112    0.93687   1.00
C5       1.00299    1.27065    1.07179   1.00
C5       0.99701    1.22935    1.07179   1.00
H1       0.99380    1.34886    0.93744   1.00
H1       1.00620    1.15114    0.93744   1.00
H1       1.00347    1.35053    1.06071   1.00
H1       0.99653    1.14947    1.06071   1.00
C6       1.01226    1.29234    1.10968   1.00
C6       0.98774    1.20766    1.10968   1.00
H2       1.02960    1.27358    1.12958   1.00
H2       1.03200    1.31737    1.10477   1.00
C6       0.97485    1.30724    1.12940   1.00
H2       0.97040    1.22642    1.12958   1.00
H2       0.96800    1.18263    1.10477   1.00
C6       1.02515    1.19276    1.12940   1.00
H2       0.95451    1.28274    1.13569   1.00
C6       0.98454    1.32832    1.16741   1.00
H2       0.95920    1.32760    1.10948   1.00
C6       1.01546    1.17168    1.16741   1.00
H2       1.04080    1.17240    1.10948   1.00
H2       1.04549    1.21726    1.13569   1.00
H2       0.99943    1.30822    1.18805   1.00
H2       1.00377    1.35380    1.16172   1.00
H2       0.95729    1.33898    1.18134   1.00
H2       1.00057    1.19178    1.18805   1.00
H2       0.99623    1.14620    1.16172   1.00
H2       1.04271    1.16102    1.18134   1.00
C4       0.72933    1.00000    1.00078   1.00
C4       0.77067    1.00000    0.99922   1.00
C3       0.70756    0.96484    1.00445   1.00
C3       0.79244    0.96484    0.99555   1.00
C4       0.70850    1.03579    0.99834   1.00
C4       0.79150    1.03579    1.00166   1.00
C2       0.64648    0.99937    0.99998   1.00
C2       0.85352    0.99937    1.00002   1.00
C3       0.66690    0.96471    1.00367   1.00
C3       0.83310    0.96471    0.99633   1.00
C3       0.66694    1.03459    0.99789   1.00
C3       0.83306    1.03459    1.00211   1.00
H1       0.72112    0.93687    1.00893   1.00
H1       0.77888    0.93687    0.99107   1.00
C5       0.72935    1.07179    0.99701   1.00
C5       0.77065    1.07179    1.00299   1.00
H1       0.65114    0.93744    1.00620   1.00
H1       0.84886    0.93744    0.99380   1.00
H1       0.64947    1.06071    0.99653   1.00
H1       0.85053    1.06071    1.00347   1.00
C6       0.70766    1.10968    0.98774   1.00
C6       0.79234    1.10968    1.01226   1.00
H2       0.72642    1.12958    0.97040   1.00
H2       0.68263    1.10477    0.96800   1.00
C6       0.69276    1.12940    1.02515   1.00
H2       0.77358    1.12958    1.02960   1.00
H2       0.81737    1.10477    1.03200   1.00
C6       0.80724    1.12940    0.97485   1.00
H2       0.71726    1.13569    1.04549   1.00
C6       0.67168    1.16741    1.01546   1.00
H2       0.67240    1.10948    1.04080   1.00
C6       0.82832    1.16741    0.98454   1.00
H2       0.82760    1.10948    0.95920   1.00
H2       0.78274    1.13569    0.95451   1.00
H2       0.69178    1.18805    1.00057   1.00
H2       0.64620    1.16172    0.99623   1.00
H2       0.66102    1.18134    1.04271   1.00
H2       0.80822    1.18805    0.99943   1.00
H2       0.85380    1.16172    1.00377   1.00
H2       0.83898    1.18134    0.95729   1.00
C4       1.27067    1.00000    0.99922   1.00
C4       1.22933    1.00000    1.00078   1.00
C3       1.29244    0.96484    0.99555   1.00
C3       1.20756    0.96484    1.00445   1.00
C4       1.29150    1.03579    1.00166   1.00
C4       1.20850    1.03579    0.99834   1.00
C2       1.35352    0.99937    1.00002   1.00
C2       1.14648    0.99937    0.99998   1.00
C3       1.33310    0.96471    0.99633   1.00
C3       1.16690    0.96471    1.00367   1.00
C3       1.33306    1.03459    1.00211   1.00
C3       1.16694    1.03459    0.99789   1.00
H1       1.27888    0.93687    0.99107   1.00
H1       1.22112    0.93687    1.00893   1.00
C5       1.27065    1.07179    1.00299   1.00
C5       1.22935    1.07179    0.99701   1.00
H1       1.34886    0.93744    0.99380   1.00
H1       1.15114    0.93744    1.00620   1.00
H1       1.35053    1.06071    1.00347   1.00
H1       1.14947    1.06071    0.99653   1.00
C6       1.29234    1.10968    1.01226   1.00
C6       1.20766    1.10968    0.98774   1.00
H2       1.27358    1.12958    1.02960   1.00
H2       1.31737    1.10477    1.03200   1.00
C6       1.30724    1.12940    0.97485   1.00
H2       1.22642    1.12958    0.97040   1.00
H2       1.18263    1.10477    0.96800   1.00
C6       1.19276    1.12940    1.02515   1.00
H2       1.28274    1.13569    0.95451   1.00
C6       1.32832    1.16741    0.98454   1.00
H2       1.32760    1.10948    0.95920   1.00
C6       1.17168    1.16741    1.01546   1.00
H2       1.17240    1.10948    1.04080   1.00
H2       1.21726    1.13569    1.04549   1.00
H2       1.30822    1.18805    0.99943   1.00
H2       1.35380    1.16172    1.00377   1.00
H2       1.33898    1.18134    0.95729   1.00
H2       1.19178    1.18805    1.00057   1.00
H2       1.14620    1.16172    0.99623   1.00
H2       1.16102    1.18134    1.04271   1.00
C4       1.00078    0.72933    1.00000   1.00
C4       0.99922    0.77067    1.00000   1.00
C3       1.00445    0.70756    0.96484   1.00
C3       0.99555    0.79244    0.96484   1.00
C4       0.99834    0.70850    1.03579   1.00
C4       1.00166    0.79150    1.03579   1.00
C2       0.99998    0.64648    0.99937   1.00
C2       1.00002    0.85352    0.99937   1.00
C3       1.00367    0.66690    0.96471   1.00
C3       0.99633    0.83310    0.96471   1.00
C3       0.99789    0.66694    1.03459   1.00
C3       1.00211    0.83306    1.03459   1.00
H1       1.00893    0.72112    0.93687   1.00
H1       0.99107    0.77888    0.93687   1.00
C5       0.99701    0.72935    1.07179   1.00
C5       1.00299    0.77065    1.07179   1.00
H1       1.00620    0.65114    0.93744   1.00
H1       0.99380    0.84886    0.93744   1.00
H1       0.99653    0.64947    1.06071   1.00
H1       1.00347    0.85053    1.06071   1.00
C6       0.98774    0.70766    1.10968   1.00
C6       1.01226    0.79234    1.10968   1.00
H2       0.97040    0.72642    1.12958   1.00
H2       0.96800    0.68263    1.10477   1.00
C6       1.02515    0.69276    1.12940   1.00
H2       1.02960    0.77358    1.12958   1.00
H2       1.03200    0.81737    1.10477   1.00
C6       0.97485    0.80724    1.12940   1.00
H2       1.04549    0.71726    1.13569   1.00
C6       1.01546    0.67168    1.16741   1.00
H2       1.04080    0.67240    1.10948   1.00
C6       0.98454    0.82832    1.16741   1.00
H2       0.95920    0.82760    1.10948   1.00
H2       0.95451    0.78274    1.13569   1.00
H2       1.00057    0.69178    1.18805   1.00
H2       0.99623    0.64620    1.16172   1.00
H2       1.04271    0.66102    1.18134   1.00
H2       0.99943    0.80822    1.18805   1.00
H2       1.00377    0.85380    1.16172   1.00
H2       0.95729    0.83898    1.18134   1.00
C4       1.00000    1.00078    0.72933   1.00
C4       1.00000    0.99922    0.77067   1.00
C3       0.96484    1.00445    0.70756   1.00
C3       0.96484    0.99555    0.79244   1.00
C4       1.03579    0.99834    0.70850   1.00
C4       1.03579    1.00166    0.79150   1.00
C2       0.99937    0.99998    0.64648   1.00
C2       0.99937    1.00002    0.85352   1.00
C3       0.96471    1.00367    0.66690   1.00
C3       0.96471    0.99633    0.83310   1.00
C3       1.03459    0.99789    0.66694   1.00
C3       1.03459    1.00211    0.83306   1.00
H1       0.93687    1.00893    0.72112   1.00
H1       0.93687    0.99107    0.77888   1.00
C5       1.07179    0.99701    0.72935   1.00
C5       1.07179    1.00299    0.77065   1.00
H1       0.93744    1.00620    0.65114   1.00
H1       0.93744    0.99380    0.84886   1.00
H1       1.06071    0.99653    0.64947   1.00
H1       1.06071    1.00347    0.85053   1.00
C6       1.10968    0.98774    0.70766   1.00
C6       1.10968    1.01226    0.79234   1.00
H2       1.12958    0.97040    0.72642   1.00
H2       1.10477    0.96800    0.68263   1.00
C6       1.12940    1.02515    0.69276   1.00
H2       1.12958    1.02960    0.77358   1.00
H2       1.10477    1.03200    0.81737   1.00
C6       1.12940    0.97485    0.80724   1.00
H2       1.13569    1.04549    0.71726   1.00
C6       1.16741    1.01546    0.67168   1.00
H2       1.10948    1.04080    0.67240   1.00
C6       1.16741    0.98454    0.82832   1.00
H2       1.10948    0.95920    0.82760   1.00
H2       1.13569    0.95451    0.78274   1.00
H2       1.18805    1.00057    0.69178   1.00
H2       1.16172    0.99623    0.64620   1.00
H2       1.18134    1.04271    0.66102   1.00
H2       1.18805    0.99943    0.80822   1.00
H2       1.16172    1.00377    0.85380   1.00
H2       1.18134    0.95729    0.83898   1.00
C4       0.50000    0.49922    1.27067   1.00
C4       0.50000    0.50078    1.22933   1.00
C3       0.46484    0.49555    1.29244   1.00
C3       0.46484    0.50445    1.20756   1.00
C4       0.53579    0.50166    1.29150   1.00
C4       0.53579    0.49834    1.20850   1.00
C2       0.49937    0.50002    1.35352   1.00
C2       0.49937    0.49998    1.14648   1.00
C3       0.46471    0.49633    1.33310   1.00
C3       0.46471    0.50367    1.16690   1.00
C3       0.53459    0.50211    1.33306   1.00
C3       0.53459    0.49789    1.16694   1.00
H1       0.43687    0.49107    1.27888   1.00
H1       0.43687    0.50893    1.22112   1.00
C5       0.57179    0.50299    1.27065   1.00
C5       0.57179    0.49701    1.22935   1.00
H1       0.43744    0.49380    1.34886   1.00
H1       0.43744    0.50620    1.15114   1.00
H1       0.56071    0.50347    1.35053   1.00
H1       0.56071    0.49653    1.14947   1.00
C6       0.60968    0.51226    1.29234   1.00
C6       0.60968    0.48774    1.20766   1.00
H2       0.62958    0.52960    1.27358   1.00
H2       0.60477    0.53200    1.31737   1.00
C6       0.62940    0.47485    1.30724   1.00
H2       0.62958    0.47040    1.22642   1.00
H2       0.60477    0.46800    1.18263   1.00
C6       0.62940    0.52515    1.19276   1.00
H2       0.63569    0.45451    1.28274   1.00
C6       0.66741    0.48454    1.32832   1.00
H2       0.60948    0.45920    1.32760   1.00
C6       0.66741    0.51546    1.17168   1.00
H2       0.60948    0.54080    1.17240   1.00
H2       0.63569    0.54549    1.21726   1.00
H2       0.68805    0.49943    1.30822   1.00
H2       0.66172    0.50377    1.35380   1.00
H2       0.68134    0.45729    1.33898   1.00
H2       0.68805    0.50057    1.19178   1.00
H2       0.66172    0.49623    1.14620   1.00
H2       0.68134    0.54271    1.16102   1.00
C4       0.49922    0.77067    1.00000   1.00
C4       0.50078    0.72933    1.00000   1.00
C3       0.49555    0.79244    0.96484   1.00
C3       0.50445    0.70756    0.96484   1.00
C4       0.50166    0.79150    1.03579   1.00
C4       0.49834    0.70850    1.03579   1.00
C2       0.50002    0.85352    0.99937   1.00
C2       0.49998    0.64648    0.99937   1.00
C3       0.49633    0.83310    0.96471   1.00
C3       0.50367    0.66690    0.96471   1.00
C3       0.50211    0.83306    1.03459   1.00
C3       0.49789    0.66694    1.03459   1.00
H1       0.49107    0.77888    0.93687   1.00
H1       0.50893    0.72112    0.93687   1.00
C5       0.50299    0.77065    1.07179   1.00
C5       0.49701    0.72935    1.07179   1.00
H1       0.49380    0.84886    0.93744   1.00
H1       0.50620    0.65114    0.93744   1.00
H1       0.50347    0.85053    1.06071   1.00
H1       0.49653    0.64947    1.06071   1.00
C6       0.51226    0.79234    1.10968   1.00
C6       0.48774    0.70766    1.10968   1.00
H2       0.52960    0.77358    1.12958   1.00
H2       0.53200    0.81737    1.10477   1.00
C6       0.47485    0.80724    1.12940   1.00
H2       0.47040    0.72642    1.12958   1.00
H2       0.46800    0.68263    1.10477   1.00
C6       0.52515    0.69276    1.12940   1.00
H2       0.45451    0.78274    1.13569   1.00
C6       0.48454    0.82832    1.16741   1.00
H2       0.45920    0.82760    1.10948   1.00
C6       0.51546    0.67168    1.16741   1.00
H2       0.54080    0.67240    1.10948   1.00
H2       0.54549    0.71726    1.13569   1.00
H2       0.49943    0.80822    1.18805   1.00
H2       0.50377    0.85380    1.16172   1.00
H2       0.45729    0.83898    1.18134   1.00
H2       0.50057    0.69178    1.18805   1.00
H2       0.49623    0.64620    1.16172   1.00
H2       0.54271    0.66102    1.18134   1.00
C4       0.22933    0.50000    1.00078   1.00
C4       0.27067    0.50000    0.99922   1.00
C3       0.20756    0.46484    1.00445   1.00
C3       0.29244    0.46484    0.99555   1.00
C4       0.20850    0.53579    0.99834   1.00
C4       0.29150    0.53579    1.00166   1.00
C2       0.14648    0.49937    0.99998   1.00
C2       0.35352    0.49937    1.00002   1.00
C3       0.16690    0.46471    1.00367   1.00
C3       0.33310    0.46471    0.99633   1.00
C3       0.16694    0.53459    0.99789   1.00
C3       0.33306    0.53459    1.00211   1.00
H1       0.22112    0.43687    1.00893   1.00
H1       0.27888    0.43687    0.99107   1.00
C5       0.22935    0.57179    0.99701   1.00
C5       0.27065    0.57179    1.00299   1.00
H1       0.15114    0.43744    1.00620   1.00
H1       0.34886    0.43744    0.99380   1.00
H1       0.14947    0.56071    0.99653   1.00
H1       0.35053    0.56071    1.00347   1.00
C6       0.20766    0.60968    0.98774   1.00
C6       0.29234    0.60968    1.01226   1.00
H2       0.22642    0.62958    0.97040   1.00
H2       0.18263    0.60477    0.96800   1.00
C6       0.19276    0.62940    1.02515   1.00
H2       0.27358    0.62958    1.02960   1.00
H2       0.31737    0.60477    1.03200   1.00
C6       0.30724    0.62940    0.97485   1.00
H2       0.21726    0.63569    1.04549   1.00
C6       0.17168    0.66741    1.01546   1.00
H2       0.17240    0.60948    1.04080   1.00
C6       0.32832    0.66741    0.98454   1.00
H2       0.32760    0.60948    0.95920   1.00
H2       0.28274    0.63569    0.95451   1.00
H2       0.19178    0.68805    1.00057   1.00
H2       0.14620    0.66172    0.99623   1.00
H2       0.16102    0.68134    1.04271   1.00
H2       0.30822    0.68805    0.99943   1.00
H2       0.35380    0.66172    1.00377   1.00
H2       0.33898    0.68134    0.95729   1.00
C4       0.77067    0.50000    0.99922   1.00
C4       0.72933    0.50000    1.00078   1.00
C3       0.79244    0.46484    0.99555   1.00
C3       0.70756    0.46484    1.00445   1.00
C4       0.79150    0.53579    1.00166   1.00
C4       0.70850    0.53579    0.99834   1.00
C2       0.85352    0.49937    1.00002   1.00
C2       0.64648    0.49937    0.99998   1.00
C3       0.83310    0.46471    0.99633   1.00
C3       0.66690    0.46471    1.00367   1.00
C3       0.83306    0.53459    1.00211   1.00
C3       0.66694    0.53459    0.99789   1.00
H1       0.77888    0.43687    0.99107   1.00
H1       0.72112    0.43687    1.00893   1.00
C5       0.77065    0.57179    1.00299   1.00
C5       0.72935    0.57179    0.99701   1.00
H1       0.84886    0.43744    0.99380   1.00
H1       0.65114    0.43744    1.00620   1.00
H1       0.85053    0.56071    1.00347   1.00
H1       0.64947    0.56071    0.99653   1.00
C6       0.79234    0.60968    1.01226   1.00
C6       0.70766    0.60968    0.98774   1.00
H2       0.77358    0.62958    1.02960   1.00
H2       0.81737    0.60477    1.03200   1.00
C6       0.80724    0.62940    0.97485   1.00
H2       0.72642    0.62958    0.97040   1.00
H2       0.68263    0.60477    0.96800   1.00
C6       0.69276    0.62940    1.02515   1.00
H2       0.78274    0.63569    0.95451   1.00
C6       0.82832    0.66741    0.98454   1.00
H2       0.82760    0.60948    0.95920   1.00
C6       0.67168    0.66741    1.01546   1.00
H2       0.67240    0.60948    1.04080   1.00
H2       0.71726    0.63569    1.04549   1.00
H2       0.80822    0.68805    0.99943   1.00
H2       0.85380    0.66172    1.00377   1.00
H2       0.83898    0.68134    0.95729   1.00
H2       0.69178    0.68805    1.00057   1.00
H2       0.64620    0.66172    0.99623   1.00
H2       0.66102    0.68134    1.04271   1.00
C4       0.50078    0.22933    1.00000   1.00
C4       0.49922    0.27067    1.00000   1.00
C3       0.50445    0.20756    0.96484   1.00
C3       0.49555    0.29244    0.96484   1.00
C4       0.49834    0.20850    1.03579   1.00
C4       0.50166    0.29150    1.03579   1.00
C2       0.49998    0.14648    0.99937   1.00
C2       0.50002    0.35352    0.99937   1.00
C3       0.50367    0.16690    0.96471   1.00
C3       0.49633    0.33310    0.96471   1.00
C3       0.49789    0.16694    1.03459   1.00
C3       0.50211    0.33306    1.03459   1.00
H1       0.50893    0.22112    0.93687   1.00
H1       0.49107    0.27888    0.93687   1.00
C5       0.49701    0.22935    1.07179   1.00
C5       0.50299    0.27065    1.07179   1.00
H1       0.50620    0.15114    0.93744   1.00
H1       0.49380    0.34886    0.93744   1.00
H1       0.49653    0.14947    1.06071   1.00
H1       0.50347    0.35053    1.06071   1.00
C6       0.48774    0.20766    1.10968   1.00
C6       0.51226    0.29234    1.10968   1.00
H2       0.47040    0.22642    1.12958   1.00
H2       0.46800    0.18263    1.10477   1.00
C6       0.52515    0.19276    1.12940   1.00
H2       0.52960    0.27358    1.12958   1.00
H2       0.53200    0.31737    1.10477   1.00
C6       0.47485    0.30724    1.12940   1.00
H2       0.54549    0.21726    1.13569   1.00
C6       0.51546    0.17168    1.16741   1.00
H2       0.54080    0.17240    1.10948   1.00
C6       0.48454    0.32832    1.16741   1.00
H2       0.45920    0.32760    1.10948   1.00
H2       0.45451    0.28274    1.13569   1.00
H2       0.50057    0.19178    1.18805   1.00
H2       0.49623    0.14620    1.16172   1.00
H2       0.54271    0.16102    1.18134   1.00
H2       0.49943    0.30822    1.18805   1.00
H2       0.50377    0.35380    1.16172   1.00
H2       0.45729    0.33898    1.18134   1.00
C4       0.50000    0.50078    0.72933   1.00
C4       0.50000    0.49922    0.77067   1.00
C3       0.46484    0.50445    0.70756   1.00
C3       0.46484    0.49555    0.79244   1.00
C4       0.53579    0.49834    0.70850   1.00
C4       0.53579    0.50166    0.79150   1.00
C2       0.49937    0.49998    0.64648   1.00
C2       0.49937    0.50002    0.85352   1.00
C3       0.46471    0.50367    0.66690   1.00
C3       0.46471    0.49633    0.83310   1.00
C3       0.53459    0.49789    0.66694   1.00
C3       0.53459    0.50211    0.83306   1.00
H1       0.43687    0.50893    0.72112   1.00
H1       0.43687    0.49107    0.77888   1.00
C5       0.57179    0.49701    0.72935   1.00
C5       0.57179    0.50299    0.77065   1.00
H1       0.43744    0.50620    0.65114   1.00
H1       0.43744    0.49380    0.84886   1.00
H1       0.56071    0.49653    0.64947   1.00
H1       0.56071    0.50347    0.85053   1.00
C6       0.60968    0.48774    0.70766   1.00
C6       0.60968    0.51226    0.79234   1.00
H2       0.62958    0.47040    0.72642   1.00
H2       0.60477    0.46800    0.68263   1.00
C6       0.62940    0.52515    0.69276   1.00
H2       0.62958    0.52960    0.77358   1.00
H2       0.60477    0.53200    0.81737   1.00
C6       0.62940    0.47485    0.80724   1.00
H2       0.63569    0.54549    0.71726   1.00
C6       0.66741    0.51546    0.67168   1.00
H2       0.60948    0.54080    0.67240   1.00
C6       0.66741    0.48454    0.82832   1.00
H2       0.60948    0.45920    0.82760   1.00
H2       0.63569    0.45451    0.78274   1.00
H2       0.68805    0.50057    0.69178   1.00
H2       0.66172    0.49623    0.64620   1.00
H2       0.68134    0.54271    0.66102   1.00
H2       0.68805    0.49943    0.80822   1.00
H2       0.66172    0.50377    0.85380   1.00
H2       0.68134    0.45729    0.83898   1.00
C4       0.50000    0.99922    0.77067   1.00
C4       0.50000    1.00078    0.72933   1.00
C3       0.46484    0.99555    0.79244   1.00
C3       0.46484    1.00445    0.70756   1.00
C4       0.53579    1.00166    0.79150   1.00
C4       0.53579    0.99834    0.70850   1.00
C2       0.49937    1.00002    0.85352   1.00
C2       0.49937    0.99998    0.64648   1.00
C3       0.46471    0.99633    0.83310   1.00
C3       0.46471    1.00367    0.66690   1.00
C3       0.53459    1.00211    0.83306   1.00
C3       0.53459    0.99789    0.66694   1.00
H1       0.43687    0.99107    0.77888   1.00
H1       0.43687    1.00893    0.72112   1.00
C5       0.57179    1.00299    0.77065   1.00
C5       0.57179    0.99701    0.72935   1.00
H1       0.43744    0.99380    0.84886   1.00
H1       0.43744    1.00620    0.65114   1.00
H1       0.56071    1.00347    0.85053   1.00
H1       0.56071    0.99653    0.64947   1.00
C6       0.60968    1.01226    0.79234   1.00
C6       0.60968    0.98774    0.70766   1.00
H2       0.62958    1.02960    0.77358   1.00
H2       0.60477    1.03200    0.81737   1.00
C6       0.62940    0.97485    0.80724   1.00
H2       0.62958    0.97040    0.72642   1.00
H2       0.60477    0.96800    0.68263   1.00
C6       0.62940    1.02515    0.69276   1.00
H2       0.63569    0.95451    0.78274   1.00
C6       0.66741    0.98454    0.82832   1.00
H2       0.60948    0.95920    0.82760   1.00
C6       0.66741    1.01546    0.67168   1.00
H2       0.60948    1.04080    0.67240   1.00
H2       0.63569    1.04549    0.71726   1.00
H2       0.68805    0.99943    0.80822   1.00
H2       0.66172    1.00377    0.85380   1.00
H2       0.68134    0.95729    0.83898   1.00
H2       0.68805    1.00057    0.69178   1.00
H2       0.66172    0.99623    0.64620   1.00
H2       0.68134    1.04271    0.66102   1.00
C4       0.49922    1.27067    0.50000   1.00
C4       0.50078    1.22933    0.50000   1.00
C3       0.49555    1.29244    0.46484   1.00
C3       0.50445    1.20756    0.46484   1.00
C4       0.50166    1.29150    0.53579   1.00
C4       0.49834    1.20850    0.53579   1.00
C2       0.50002    1.35352    0.49937   1.00
C2       0.49998    1.14648    0.49937   1.00
C3       0.49633    1.33310    0.46471   1.00
C3       0.50367    1.16690    0.46471   1.00
C3       0.50211    1.33306    0.53459   1.00
C3       0.49789    1.16694    0.53459   1.00
H1       0.49107    1.27888    0.43687   1.00
H1       0.50893    1.22112    0.43687   1.00
C5       0.50299    1.27065    0.57179   1.00
C5       0.49701    1.22935    0.57179   1.00
H1       0.49380    1.34886    0.43744   1.00
H1       0.50620    1.15114    0.43744   1.00
H1       0.50347    1.35053    0.56071   1.00
H1       0.49653    1.14947    0.56071   1.00
C6       0.51226    1.29234    0.60968   1.00
C6       0.48774    1.20766    0.60968   1.00
H2       0.52960    1.27358    0.62958   1.00
H2       0.53200    1.31737    0.60477   1.00
C6       0.47485    1.30724    0.62940   1.00
H2       0.47040    1.22642    0.62958   1.00
H2       0.46800    1.18263    0.60477   1.00
C6       0.52515    1.19276    0.62940   1.00
H2       0.45451    1.28274    0.63569   1.00
C6       0.48454    1.32832    0.66741   1.00
H2       0.45920    1.32760    0.60948   1.00
C6       0.51546    1.17168    0.66741   1.00
H2       0.54080    1.17240    0.60948   1.00
H2       0.54549    1.21726    0.63569   1.00
H2       0.49943    1.30822    0.68805   1.00
H2       0.50377    1.35380    0.66172   1.00
H2       0.45729    1.33898    0.68134   1.00
H2       0.50057    1.19178    0.68805   1.00
H2       0.49623    1.14620    0.66172   1.00
H2       0.54271    1.16102    0.68134   1.00
C4       0.22933    1.00000    0.50078   1.00
C4       0.27067    1.00000    0.49922   1.00
C3       0.20756    0.96484    0.50445   1.00
C3       0.29244    0.96484    0.49555   1.00
C4       0.20850    1.03579    0.49834   1.00
C4       0.29150    1.03579    0.50166   1.00
C2       0.14648    0.99937    0.49998   1.00
C2       0.35352    0.99937    0.50002   1.00
C3       0.16690    0.96471    0.50367   1.00
C3       0.33310    0.96471    0.49633   1.00
C3       0.16694    1.03459    0.49789   1.00
C3       0.33306    1.03459    0.50211   1.00
H1       0.22112    0.93687    0.50893   1.00
H1       0.27888    0.93687    0.49107   1.00
C5       0.22935    1.07179    0.49701   1.00
C5       0.27065    1.07179    0.50299   1.00
H1       0.15114    0.93744    0.50620   1.00
H1       0.34886    0.93744    0.49380   1.00
H1       0.14947    1.06071    0.49653   1.00
H1       0.35053    1.06071    0.50347   1.00
C6       0.20766    1.10968    0.48774   1.00
C6       0.29234    1.10968    0.51226   1.00
H2       0.22642    1.12958    0.47040   1.00
H2       0.18263    1.10477    0.46800   1.00
C6       0.19276    1.12940    0.52515   1.00
H2       0.27358    1.12958    0.52960   1.00
H2       0.31737    1.10477    0.53200   1.00
C6       0.30724    1.12940    0.47485   1.00
H2       0.21726    1.13569    0.54549   1.00
C6       0.17168    1.16741    0.51546   1.00
H2       0.17240    1.10948    0.54080   1.00
C6       0.32832    1.16741    0.48454   1.00
H2       0.32760    1.10948    0.45920   1.00
H2       0.28274    1.13569    0.45451   1.00
H2       0.19178    1.18805    0.50057   1.00
H2       0.14620    1.16172    0.49623   1.00
H2       0.16102    1.18134    0.54271   1.00
H2       0.30822    1.18805    0.49943   1.00
H2       0.35380    1.16172    0.50377   1.00
H2       0.33898    1.18134    0.45729   1.00
C4       0.77067    1.00000    0.49922   1.00
C4       0.72933    1.00000    0.50078   1.00
C3       0.79244    0.96484    0.49555   1.00
C3       0.70756    0.96484    0.50445   1.00
C4       0.79150    1.03579    0.50166   1.00
C4       0.70850    1.03579    0.49834   1.00
C2       0.85352    0.99937    0.50002   1.00
C2       0.64648    0.99937    0.49998   1.00
C3       0.83310    0.96471    0.49633   1.00
C3       0.66690    0.96471    0.50367   1.00
C3       0.83306    1.03459    0.50211   1.00
C3       0.66694    1.03459    0.49789   1.00
H1       0.77888    0.93687    0.49107   1.00
H1       0.72112    0.93687    0.50893   1.00
C5       0.77065    1.07179    0.50299   1.00
C5       0.72935    1.07179    0.49701   1.00
H1       0.84886    0.93744    0.49380   1.00
H1       0.65114    0.93744    0.50620   1.00
H1       0.85053    1.06071    0.50347   1.00
H1       0.64947    1.06071    0.49653   1.00
C6       0.79234    1.10968    0.51226   1.00
C6       0.70766    1.10968    0.48774   1.00
H2       0.77358    1.12958    0.52960   1.00
H2       0.81737    1.10477    0.53200   1.00
C6       0.80724    1.12940    0.47485   1.00
H2       0.72642    1.12958    0.47040   1.00
H2       0.68263    1.10477    0.46800   1.00
C6       0.69276    1.12940    0.52515   1.00
H2       0.78274    1.13569    0.45451   1.00
C6       0.82832    1.16741    0.48454   1.00
H2       0.82760    1.10948    0.45920   1.00
C6       0.67168    1.16741    0.51546   1.00
H2       0.67240    1.10948    0.54080   1.00
H2       0.71726    1.13569    0.54549   1.00
H2       0.80822    1.18805    0.49943   1.00
H2       0.85380    1.16172    0.50377   1.00
H2       0.83898    1.18134    0.45729   1.00
H2       0.69178    1.18805    0.50057   1.00
H2       0.64620    1.16172    0.49623   1.00
H2       0.66102    1.18134    0.54271   1.00
C4       0.50078    0.72933    0.50000   1.00
C4       0.49922    0.77067    0.50000   1.00
C3       0.50445    0.70756    0.46484   1.00
C3       0.49555    0.79244    0.46484   1.00
C4       0.49834    0.70850    0.53579   1.00
C4       0.50166    0.79150    0.53579   1.00
C2       0.49998    0.64648    0.49937   1.00
C2       0.50002    0.85352    0.49937   1.00
C3       0.50367    0.66690    0.46471   1.00
C3       0.49633    0.83310    0.46471   1.00
C3       0.49789    0.66694    0.53459   1.00
C3       0.50211    0.83306    0.53459   1.00
H1       0.50893    0.72112    0.43687   1.00
H1       0.49107    0.77888    0.43687   1.00
C5       0.49701    0.72935    0.57179   1.00
C5       0.50299    0.77065    0.57179   1.00
H1       0.50620    0.65114    0.43744   1.00
H1       0.49380    0.84886    0.43744   1.00
H1       0.49653    0.64947    0.56071   1.00
H1       0.50347    0.85053    0.56071   1.00
C6       0.48774    0.70766    0.60968   1.00
C6       0.51226    0.79234    0.60968   1.00
H2       0.47040    0.72642    0.62958   1.00
H2       0.46800    0.68263    0.60477   1.00
C6       0.52515    0.69276    0.62940   1.00
H2       0.52960    0.77358    0.62958   1.00
H2       0.53200    0.81737    0.60477   1.00
C6       0.47485    0.80724    0.62940   1.00
H2       0.54549    0.71726    0.63569   1.00
C6       0.51546    0.67168    0.66741   1.00
H2       0.54080    0.67240    0.60948   1.00
C6       0.48454    0.82832    0.66741   1.00
H2       0.45920    0.82760    0.60948   1.00
H2       0.45451    0.78274    0.63569   1.00
H2       0.50057    0.69178    0.68805   1.00
H2       0.49623    0.64620    0.66172   1.00
H2       0.54271    0.66102    0.68134   1.00
H2       0.49943    0.80822    0.68805   1.00
H2       0.50377    0.85380    0.66172   1.00
H2       0.45729    0.83898    0.68134   1.00
C4       0.50000    1.00078    0.22933   1.00
C4       0.50000    0.99922    0.27067   1.00
C3       0.46484    1.00445    0.20756   1.00
C3       0.46484    0.99555    0.29244   1.00
C4       0.53579    0.99834    0.20850   1.00
C4       0.53579    1.00166    0.29150   1.00
C2       0.49937    0.99998    0.14648   1.00
C2       0.49937    1.00002    0.35352   1.00
C3       0.46471    1.00367    0.16690   1.00
C3       0.46471    0.99633    0.33310   1.00
C3       0.53459    0.99789    0.16694   1.00
C3       0.53459    1.00211    0.33306   1.00
H1       0.43687    1.00893    0.22112   1.00
H1       0.43687    0.99107    0.27888   1.00
C5       0.57179    0.99701    0.22935   1.00
C5       0.57179    1.00299    0.27065   1.00
H1       0.43744    1.00620    0.15114   1.00
H1       0.43744    0.99380    0.34886   1.00
H1       0.56071    0.99653    0.14947   1.00
H1       0.56071    1.00347    0.35053   1.00
C6       0.60968    0.98774    0.20766   1.00
C6       0.60968    1.01226    0.29234   1.00
H2       0.62958    0.97040    0.22642   1.00
H2       0.60477    0.96800    0.18263   1.00
C6       0.62940    1.02515    0.19276   1.00
H2       0.62958    1.02960    0.27358   1.00
H2       0.60477    1.03200    0.31737   1.00
C6       0.62940    0.97485    0.30724   1.00
H2       0.63569    1.04549    0.21726   1.00
C6       0.66741    1.01546    0.17168   1.00
H2       0.60948    1.04080    0.17240   1.00
C6       0.66741    0.98454    0.32832   1.00
H2       0.60948    0.95920    0.32760   1.00
H2       0.63569    0.95451    0.28274   1.00
H2       0.68805    1.00057    0.19178   1.00
H2       0.66172    0.99623    0.14620   1.00
H2       0.68134    1.04271    0.16102   1.00
H2       0.68805    0.99943    0.30822   1.00
H2       0.66172    1.00377    0.35380   1.00
H2       0.68134    0.95729    0.33898   1.00
C4       1.00000    0.49922    0.77067   1.00
C4       1.00000    0.50078    0.72933   1.00
C3       0.96484    0.49555    0.79244   1.00
C3       0.96484    0.50445    0.70756   1.00
C4       1.03579    0.50166    0.79150   1.00
C4       1.03579    0.49834    0.70850   1.00
C2       0.99937    0.50002    0.85352   1.00
C2       0.99937    0.49998    0.64648   1.00
C3       0.96471    0.49633    0.83310   1.00
C3       0.96471    0.50367    0.66690   1.00
C3       1.03459    0.50211    0.83306   1.00
C3       1.03459    0.49789    0.66694   1.00
H1       0.93687    0.49107    0.77888   1.00
H1       0.93687    0.50893    0.72112   1.00
C5       1.07179    0.50299    0.77065   1.00
C5       1.07179    0.49701    0.72935   1.00
H1       0.93744    0.49380    0.84886   1.00
H1       0.93744    0.50620    0.65114   1.00
H1       1.06071    0.50347    0.85053   1.00
H1       1.06071    0.49653    0.64947   1.00
C6       1.10968    0.51226    0.79234   1.00
C6       1.10968    0.48774    0.70766   1.00
H2       1.12958    0.52960    0.77358   1.00
H2       1.10477    0.53200    0.81737   1.00
C6       1.12940    0.47485    0.80724   1.00
H2       1.12958    0.47040    0.72642   1.00
H2       1.10477    0.46800    0.68263   1.00
C6       1.12940    0.52515    0.69276   1.00
H2       1.13569    0.45451    0.78274   1.00
C6       1.16741    0.48454    0.82832   1.00
H2       1.10948    0.45920    0.82760   1.00
C6       1.16741    0.51546    0.67168   1.00
H2       1.10948    0.54080    0.67240   1.00
H2       1.13569    0.54549    0.71726   1.00
H2       1.18805    0.49943    0.80822   1.00
H2       1.16172    0.50377    0.85380   1.00
H2       1.18134    0.45729    0.83898   1.00
H2       1.18805    0.50057    0.69178   1.00
H2       1.16172    0.49623    0.64620   1.00
H2       1.18134    0.54271    0.66102   1.00
C4       0.99922    0.77067    0.50000   1.00
C4       1.00078    0.72933    0.50000   1.00
C3       0.99555    0.79244    0.46484   1.00
C3       1.00445    0.70756    0.46484   1.00
C4       1.00166    0.79150    0.53579   1.00
C4       0.99834    0.70850    0.53579   1.00
C2       1.00002    0.85352    0.49937   1.00
C2       0.99998    0.64648    0.49937   1.00
C3       0.99633    0.83310    0.46471   1.00
C3       1.00367    0.66690    0.46471   1.00
C3       1.00211    0.83306    0.53459   1.00
C3       0.99789    0.66694    0.53459   1.00
H1       0.99107    0.77888    0.43687   1.00
H1       1.00893    0.72112    0.43687   1.00
C5       1.00299    0.77065    0.57179   1.00
C5       0.99701    0.72935    0.57179   1.00
H1       0.99380    0.84886    0.43744   1.00
H1       1.00620    0.65114    0.43744   1.00
H1       1.00347    0.85053    0.56071   1.00
H1       0.99653    0.64947    0.56071   1.00
C6       1.01226    0.79234    0.60968   1.00
C6       0.98774    0.70766    0.60968   1.00
H2       1.02960    0.77358    0.62958   1.00
H2       1.03200    0.81737    0.60477   1.00
C6       0.97485    0.80724    0.62940   1.00
H2       0.97040    0.72642    0.62958   1.00
H2       0.96800    0.68263    0.60477   1.00
C6       1.02515    0.69276    0.62940   1.00
H2       0.95451    0.78274    0.63569   1.00
C6       0.98454    0.82832    0.66741   1.00
H2       0.95920    0.82760    0.60948   1.00
C6       1.01546    0.67168    0.66741   1.00
H2       1.04080    0.67240    0.60948   1.00
H2       1.04549    0.71726    0.63569   1.00
H2       0.99943    0.80822    0.68805   1.00
H2       1.00377    0.85380    0.66172   1.00
H2       0.95729    0.83898    0.68134   1.00
H2       1.00057    0.69178    0.68805   1.00
H2       0.99623    0.64620    0.66172   1.00
H2       1.04271    0.66102    0.68134   1.00
C4       0.72933    0.50000    0.50078   1.00
C4       0.77067    0.50000    0.49922   1.00
C3       0.70756    0.46484    0.50445   1.00
C3       0.79244    0.46484    0.49555   1.00
C4       0.70850    0.53579    0.49834   1.00
C4       0.79150    0.53579    0.50166   1.00
C2       0.64648    0.49937    0.49998   1.00
C2       0.85352    0.49937    0.50002   1.00
C3       0.66690    0.46471    0.50367   1.00
C3       0.83310    0.46471    0.49633   1.00
C3       0.66694    0.53459    0.49789   1.00
C3       0.83306    0.53459    0.50211   1.00
H1       0.72112    0.43687    0.50893   1.00
H1       0.77888    0.43687    0.49107   1.00
C5       0.72935    0.57179    0.49701   1.00
C5       0.77065    0.57179    0.50299   1.00
H1       0.65114    0.43744    0.50620   1.00
H1       0.84886    0.43744    0.49380   1.00
H1       0.64947    0.56071    0.49653   1.00
H1       0.85053    0.56071    0.50347   1.00
C6       0.70766    0.60968    0.48774   1.00
C6       0.79234    0.60968    0.51226   1.00
H2       0.72642    0.62958    0.47040   1.00
H2       0.68263    0.60477    0.46800   1.00
C6       0.69276    0.62940    0.52515   1.00
H2       0.77358    0.62958    0.52960   1.00
H2       0.81737    0.60477    0.53200   1.00
C6       0.80724    0.62940    0.47485   1.00
H2       0.71726    0.63569    0.54549   1.00
C6       0.67168    0.66741    0.51546   1.00
H2       0.67240    0.60948    0.54080   1.00
C6       0.82832    0.66741    0.48454   1.00
H2       0.82760    0.60948    0.45920   1.00
H2       0.78274    0.63569    0.45451   1.00
H2       0.69178    0.68805    0.50057   1.00
H2       0.64620    0.66172    0.49623   1.00
H2       0.66102    0.68134    0.54271   1.00
H2       0.80822    0.68805    0.49943   1.00
H2       0.85380    0.66172    0.50377   1.00
H2       0.83898    0.68134    0.45729   1.00
C4       1.27067    0.50000    0.49922   1.00
C4       1.22933    0.50000    0.50078   1.00
C3       1.29244    0.46484    0.49555   1.00
C3       1.20756    0.46484    0.50445   1.00
C4       1.29150    0.53579    0.50166   1.00
C4       1.20850    0.53579    0.49834   1.00
C2       1.35352    0.49937    0.50002   1.00
C2       1.14648    0.49937    0.49998   1.00
C3       1.33310    0.46471    0.49633   1.00
C3       1.16690    0.46471    0.50367   1.00
C3       1.33306    0.53459    0.50211   1.00
C3       1.16694    0.53459    0.49789   1.00
H1       1.27888    0.43687    0.49107   1.00
H1       1.22112    0.43687    0.50893   1.00
C5       1.27065    0.57179    0.50299   1.00
C5       1.22935    0.57179    0.49701   1.00
H1       1.34886    0.43744    0.49380   1.00
H1       1.15114    0.43744    0.50620   1.00
H1       1.35053    0.56071    0.50347   1.00
H1       1.14947    0.56071    0.49653   1.00
C6       1.29234    0.60968    0.51226   1.00
C6       1.20766    0.60968    0.48774   1.00
H2       1.27358    0.62958    0.52960   1.00
H2       1.31737    0.60477    0.53200   1.00
C6       1.30724    0.62940    0.47485   1.00
H2       1.22642    0.62958    0.47040   1.00
H2       1.18263    0.60477    0.46800   1.00
C6       1.19276    0.62940    0.52515   1.00
H2       1.28274    0.63569    0.45451   1.00
C6       1.32832    0.66741    0.48454   1.00
H2       1.32760    0.60948    0.45920   1.00
C6       1.17168    0.66741    0.51546   1.00
H2       1.17240    0.60948    0.54080   1.00
H2       1.21726    0.63569    0.54549   1.00
H2       1.30822    0.68805    0.49943   1.00
H2       1.35380    0.66172    0.50377   1.00
H2       1.33898    0.68134    0.45729   1.00
H2       1.19178    0.68805    0.50057   1.00
H2       1.14620    0.66172    0.49623   1.00
H2       1.16102    0.68134    0.54271   1.00
C4       1.00078    0.22933    0.50000   1.00
C4       0.99922    0.27067    0.50000   1.00
C3       1.00445    0.20756    0.46484   1.00
C3       0.99555    0.29244    0.46484   1.00
C4       0.99834    0.20850    0.53579   1.00
C4       1.00166    0.29150    0.53579   1.00
C2       0.99998    0.14648    0.49937   1.00
C2       1.00002    0.35352    0.49937   1.00
C3       1.00367    0.16690    0.46471   1.00
C3       0.99633    0.33310    0.46471   1.00
C3       0.99789    0.16694    0.53459   1.00
C3       1.00211    0.33306    0.53459   1.00
H1       1.00893    0.22112    0.43687   1.00
H1       0.99107    0.27888    0.43687   1.00
C5       0.99701    0.22935    0.57179   1.00
C5       1.00299    0.27065    0.57179   1.00
H1       1.00620    0.15114    0.43744   1.00
H1       0.99380    0.34886    0.43744   1.00
H1       0.99653    0.14947    0.56071   1.00
H1       1.00347    0.35053    0.56071   1.00
C6       0.98774    0.20766    0.60968   1.00
C6       1.01226    0.29234    0.60968   1.00
H2       0.97040    0.22642    0.62958   1.00
H2       0.96800    0.18263    0.60477   1.00
C6       1.02515    0.19276    0.62940   1.00
H2       1.02960    0.27358    0.62958   1.00
H2       1.03200    0.31737    0.60477   1.00
C6       0.97485    0.30724    0.62940   1.00
H2       1.04549    0.21726    0.63569   1.00
C6       1.01546    0.17168    0.66741   1.00
H2       1.04080    0.17240    0.60948   1.00
C6       0.98454    0.32832    0.66741   1.00
H2       0.95920    0.32760    0.60948   1.00
H2       0.95451    0.28274    0.63569   1.00
H2       1.00057    0.19178    0.68805   1.00
H2       0.99623    0.14620    0.66172   1.00
H2       1.04271    0.16102    0.68134   1.00
H2       0.99943    0.30822    0.68805   1.00
H2       1.00377    0.35380    0.66172   1.00
H2       0.95729    0.33898    0.68134   1.00
C4       1.00000    0.50078    0.22933   1.00
C4       1.00000    0.49922    0.27067   1.00
C3       0.96484    0.50445    0.20756   1.00
C3       0.96484    0.49555    0.29244   1.00
C4       1.03579    0.49834    0.20850   1.00
C4       1.03579    0.50166    0.29150   1.00
C2       0.99937    0.49998    0.14648   1.00
C2       0.99937    0.50002    0.35352   1.00
C3       0.96471    0.50367    0.16690   1.00
C3       0.96471    0.49633    0.33310   1.00
C3       1.03459    0.49789    0.16694   1.00
C3       1.03459    0.50211    0.33306   1.00
H1       0.93687    0.50893    0.22112   1.00
H1       0.93687    0.49107    0.27888   1.00
C5       1.07179    0.49701    0.22935   1.00
C5       1.07179    0.50299    0.27065   1.00
H1       0.93744    0.50620    0.15114   1.00
H1       0.93744    0.49380    0.34886   1.00
H1       1.06071    0.49653    0.14947   1.00
H1       1.06071    0.50347    0.35053   1.00
C6       1.10968    0.48774    0.20766   1.00
C6       1.10968    0.51226    0.29234   1.00
H2       1.12958    0.47040    0.22642   1.00
H2       1.10477    0.46800    0.18263   1.00
C6       1.12940    0.52515    0.19276   1.00
H2       1.12958    0.52960    0.27358   1.00
H2       1.10477    0.53200    0.31737   1.00
C6       1.12940    0.47485    0.30724   1.00
H2       1.13569    0.54549    0.21726   1.00
C6       1.16741    0.51546    0.17168   1.00
H2       1.10948    0.54080    0.17240   1.00
C6       1.16741    0.48454    0.32832   1.00
H2       1.10948    0.45920    0.32760   1.00
H2       1.13569    0.45451    0.28274   1.00
H2       1.18805    0.50057    0.19178   1.00
H2       1.16172    0.49623    0.14620   1.00
H2       1.18134    0.54271    0.16102   1.00
H2       1.18805    0.49943    0.30822   1.00
H2       1.16172    0.50377    0.35380   1.00
H2       1.18134    0.45729    0.33898   1.00
