data_IRMOF10_SG202_interpen_Ligand9lp_label_w.

_audit_creation_method             'generated by an auxiliary program of Tobunporous'

_symmetry_space_group_name_H-M     'P 1'
_symmetry_Int_Tables_number        1
_symmetry_cell_setting             triclinic

_cell_length_a                    34.2800
_cell_length_b                    34.2800
_cell_length_c                    34.2800
_cell_angle_alpha                 90.0000
_cell_angle_beta                  90.0000
_cell_angle_gamma                 90.0000

loop_
_atom_site_label
_atom_site_fract_x
_atom_site_fract_y
_atom_site_fract_z
_atom_site_occupancy
O1       0.75000    0.75000    0.75000   1.00
Zn1      0.71720    0.78280    0.78280   1.00
Zn1      0.78280    0.71720    0.78280   1.00
Zn1      0.78280    0.78280    0.71720   1.00
Zn1      0.71720    0.71720    0.71720   1.00
O2       0.72650    0.77350    0.83820   1.00
O2       0.72650    0.83820    0.77350   1.00
O2       0.66180    0.77350    0.77350   1.00
O2       0.77350    0.72650    0.83820   1.00
O2       0.83820    0.72650    0.77350   1.00
O2       0.77350    0.66180    0.77350   1.00
O2       0.77350    0.83820    0.72650   1.00
O2       0.83820    0.77350    0.72650   1.00
O2       0.77350    0.77350    0.66180   1.00
O2       0.66180    0.72650    0.72650   1.00
O2       0.72650    0.66180    0.72650   1.00
O2       0.72650    0.72650    0.66180   1.00
C1       0.75000    0.75000    0.85520   1.00
C1       0.75000    0.85520    0.75000   1.00
C1       0.64480    0.75000    0.75000   1.00
C1       0.85520    0.75000    0.75000   1.00
C1       0.75000    0.64480    0.75000   1.00
C1       0.75000    0.75000    0.64480   1.00
O1       0.25000    0.25000    0.75000   1.00
Zn1      0.21720    0.28280    0.78280   1.00
Zn1      0.28280    0.21720    0.78280   1.00
Zn1      0.28280    0.28280    0.71720   1.00
Zn1      0.21720    0.21720    0.71720   1.00
O2       0.22650    0.27350    0.83820   1.00
O2       0.22650    0.33820    0.77350   1.00
O2       0.16180    0.27350    0.77350   1.00
O2       0.27350    0.22650    0.83820   1.00
O2       0.33820    0.22650    0.77350   1.00
O2       0.27350    0.16180    0.77350   1.00
O2       0.27350    0.33820    0.72650   1.00
O2       0.33820    0.27350    0.72650   1.00
O2       0.27350    0.27350    0.66180   1.00
O2       0.16180    0.22650    0.72650   1.00
O2       0.22650    0.16180    0.72650   1.00
O2       0.22650    0.22650    0.66180   1.00
C1       0.25000    0.25000    0.85520   1.00
C1       0.25000    0.35520    0.75000   1.00
C1       0.14480    0.25000    0.75000   1.00
C1       0.35520    0.25000    0.75000   1.00
C1       0.25000    0.14480    0.75000   1.00
C1       0.25000    0.25000    0.64480   1.00
O1       0.25000    0.75000    0.25000   1.00
Zn1      0.21720    0.78280    0.28280   1.00
Zn1      0.28280    0.71720    0.28280   1.00
Zn1      0.28280    0.78280    0.21720   1.00
Zn1      0.21720    0.71720    0.21720   1.00
O2       0.22650    0.77350    0.33820   1.00
O2       0.22650    0.83820    0.27350   1.00
O2       0.16180    0.77350    0.27350   1.00
O2       0.27350    0.72650    0.33820   1.00
O2       0.33820    0.72650    0.27350   1.00
O2       0.27350    0.66180    0.27350   1.00
O2       0.27350    0.83820    0.22650   1.00
O2       0.33820    0.77350    0.22650   1.00
O2       0.27350    0.77350    0.16180   1.00
O2       0.16180    0.72650    0.22650   1.00
O2       0.22650    0.66180    0.22650   1.00
O2       0.22650    0.72650    0.16180   1.00
C1       0.25000    0.75000    0.35520   1.00
C1       0.25000    0.85520    0.25000   1.00
C1       0.14480    0.75000    0.25000   1.00
C1       0.35520    0.75000    0.25000   1.00
C1       0.25000    0.64480    0.25000   1.00
C1       0.25000    0.75000    0.14480   1.00
O1       0.75000    0.25000    0.25000   1.00
Zn1      0.71720    0.28280    0.28280   1.00
Zn1      0.78280    0.21720    0.28280   1.00
Zn1      0.78280    0.28280    0.21720   1.00
Zn1      0.71720    0.21720    0.21720   1.00
O2       0.72650    0.27350    0.33820   1.00
O2       0.72650    0.33820    0.27350   1.00
O2       0.66180    0.27350    0.27350   1.00
O2       0.77350    0.22650    0.33820   1.00
O2       0.83820    0.22650    0.27350   1.00
O2       0.77350    0.16180    0.27350   1.00
O2       0.77350    0.33820    0.22650   1.00
O2       0.83820    0.27350    0.22650   1.00
O2       0.77350    0.27350    0.16180   1.00
O2       0.66180    0.22650    0.22650   1.00
O2       0.72650    0.16180    0.22650   1.00
O2       0.72650    0.22650    0.16180   1.00
C1       0.75000    0.25000    0.35520   1.00
C1       0.75000    0.35520    0.25000   1.00
C1       0.64480    0.25000    0.25000   1.00
C1       0.85520    0.25000    0.25000   1.00
C1       0.75000    0.14480    0.25000   1.00
C1       0.75000    0.25000    0.14480   1.00
O1       0.25000    0.25000    0.25000   1.00
Zn1      0.28280    0.21720    0.21720   1.00
Zn1      0.21720    0.28280    0.21720   1.00
Zn1      0.21720    0.21720    0.28280   1.00
Zn1      0.28280    0.28280    0.28280   1.00
O2       0.27350    0.22650    0.16180   1.00
O2       0.27350    0.16180    0.22650   1.00
O2       0.33820    0.22650    0.22650   1.00
O2       0.22650    0.27350    0.16180   1.00
O2       0.16180    0.27350    0.22650   1.00
O2       0.22650    0.33820    0.22650   1.00
O2       0.22650    0.16180    0.27350   1.00
O2       0.16180    0.22650    0.27350   1.00
O2       0.22650    0.22650    0.33820   1.00
O2       0.33820    0.27350    0.27350   1.00
O2       0.27350    0.33820    0.27350   1.00
O2       0.27350    0.27350    0.33820   1.00
C1       0.25000    0.25000    0.14480   1.00
C1       0.25000    0.14480    0.25000   1.00
C1       0.35520    0.25000    0.25000   1.00
C1       0.14480    0.25000    0.25000   1.00
C1       0.25000    0.35520    0.25000   1.00
C1       0.25000    0.25000    0.35520   1.00
O1       0.75000    0.75000    0.25000   1.00
Zn1      0.78280    0.71720    0.21720   1.00
Zn1      0.71720    0.78280    0.21720   1.00
Zn1      0.71720    0.71720    0.28280   1.00
Zn1      0.78280    0.78280    0.28280   1.00
O2       0.77350    0.72650    0.16180   1.00
O2       0.77350    0.66180    0.22650   1.00
O2       0.83820    0.72650    0.22650   1.00
O2       0.72650    0.77350    0.16180   1.00
O2       0.66180    0.77350    0.22650   1.00
O2       0.72650    0.83820    0.22650   1.00
O2       0.72650    0.66180    0.27350   1.00
O2       0.66180    0.72650    0.27350   1.00
O2       0.72650    0.72650    0.33820   1.00
O2       0.83820    0.77350    0.27350   1.00
O2       0.77350    0.83820    0.27350   1.00
O2       0.77350    0.77350    0.33820   1.00
C1       0.75000    0.75000    0.14480   1.00
C1       0.75000    0.64480    0.25000   1.00
C1       0.85520    0.75000    0.25000   1.00
C1       0.64480    0.75000    0.25000   1.00
C1       0.75000    0.85520    0.25000   1.00
C1       0.75000    0.75000    0.35520   1.00
O1       0.75000    0.25000    0.75000   1.00
Zn1      0.78280    0.21720    0.71720   1.00
Zn1      0.71720    0.28280    0.71720   1.00
Zn1      0.71720    0.21720    0.78280   1.00
Zn1      0.78280    0.28280    0.78280   1.00
O2       0.77350    0.22650    0.66180   1.00
O2       0.77350    0.16180    0.72650   1.00
O2       0.83820    0.22650    0.72650   1.00
O2       0.72650    0.27350    0.66180   1.00
O2       0.66180    0.27350    0.72650   1.00
O2       0.72650    0.33820    0.72650   1.00
O2       0.72650    0.16180    0.77350   1.00
O2       0.66180    0.22650    0.77350   1.00
O2       0.72650    0.22650    0.83820   1.00
O2       0.83820    0.27350    0.77350   1.00
O2       0.77350    0.33820    0.77350   1.00
O2       0.77350    0.27350    0.83820   1.00
C1       0.75000    0.25000    0.64480   1.00
C1       0.75000    0.14480    0.75000   1.00
C1       0.85520    0.25000    0.75000   1.00
C1       0.64480    0.25000    0.75000   1.00
C1       0.75000    0.35520    0.75000   1.00
C1       0.75000    0.25000    0.85520   1.00
O1       0.25000    0.75000    0.75000   1.00
Zn1      0.28280    0.71720    0.71720   1.00
Zn1      0.21720    0.78280    0.71720   1.00
Zn1      0.21720    0.71720    0.78280   1.00
Zn1      0.28280    0.78280    0.78280   1.00
O2       0.27350    0.72650    0.66180   1.00
O2       0.27350    0.66180    0.72650   1.00
O2       0.33820    0.72650    0.72650   1.00
O2       0.22650    0.77350    0.66180   1.00
O2       0.16180    0.77350    0.72650   1.00
O2       0.22650    0.83820    0.72650   1.00
O2       0.22650    0.66180    0.77350   1.00
O2       0.16180    0.72650    0.77350   1.00
O2       0.22650    0.72650    0.83820   1.00
O2       0.33820    0.77350    0.77350   1.00
O2       0.27350    0.83820    0.77350   1.00
O2       0.27350    0.77350    0.83820   1.00
C1       0.25000    0.75000    0.64480   1.00
C1       0.25000    0.64480    0.75000   1.00
C1       0.35520    0.75000    0.75000   1.00
C1       0.14480    0.75000    0.75000   1.00
C1       0.25000    0.85520    0.75000   1.00
C1       0.25000    0.75000    0.85520   1.00
O1       1.00000    1.00000    1.00000   1.00
Zn1      0.96720    1.03280    1.03280   1.00
Zn1      1.03280    0.96720    1.03280   1.00
Zn1      1.03280    1.03280    0.96720   1.00
Zn1      0.96720    0.96720    0.96720   1.00
O2       0.97650    1.02350    1.08820   1.00
O2       0.97650    1.08820    1.02350   1.00
O2       0.91180    1.02350    1.02350   1.00
O2       1.02350    0.97650    1.08820   1.00
O2       1.08820    0.97650    1.02350   1.00
O2       1.02350    0.91180    1.02350   1.00
O2       1.02350    1.08820    0.97650   1.00
O2       1.08820    1.02350    0.97650   1.00
O2       1.02350    1.02350    0.91180   1.00
O2       0.91180    0.97650    0.97650   1.00
O2       0.97650    0.91180    0.97650   1.00
O2       0.97650    0.97650    0.91180   1.00
C1       1.00000    1.00000    1.10520   1.00
C1       1.00000    1.10520    1.00000   1.00
C1       0.89480    1.00000    1.00000   1.00
C1       1.10520    1.00000    1.00000   1.00
C1       1.00000    0.89480    1.00000   1.00
C1       1.00000    1.00000    0.89480   1.00
O1       0.50000    0.50000    1.00000   1.00
Zn1      0.46720    0.53280    1.03280   1.00
Zn1      0.53280    0.46720    1.03280   1.00
Zn1      0.53280    0.53280    0.96720   1.00
Zn1      0.46720    0.46720    0.96720   1.00
O2       0.47650    0.52350    1.08820   1.00
O2       0.47650    0.58820    1.02350   1.00
O2       0.41180    0.52350    1.02350   1.00
O2       0.52350    0.47650    1.08820   1.00
O2       0.58820    0.47650    1.02350   1.00
O2       0.52350    0.41180    1.02350   1.00
O2       0.52350    0.58820    0.97650   1.00
O2       0.58820    0.52350    0.97650   1.00
O2       0.52350    0.52350    0.91180   1.00
O2       0.41180    0.47650    0.97650   1.00
O2       0.47650    0.41180    0.97650   1.00
O2       0.47650    0.47650    0.91180   1.00
C1       0.50000    0.50000    1.10520   1.00
C1       0.50000    0.60520    1.00000   1.00
C1       0.39480    0.50000    1.00000   1.00
C1       0.60520    0.50000    1.00000   1.00
C1       0.50000    0.39480    1.00000   1.00
C1       0.50000    0.50000    0.89480   1.00
O1       0.50000    1.00000    0.50000   1.00
Zn1      0.46720    1.03280    0.53280   1.00
Zn1      0.53280    0.96720    0.53280   1.00
Zn1      0.53280    1.03280    0.46720   1.00
Zn1      0.46720    0.96720    0.46720   1.00
O2       0.47650    1.02350    0.58820   1.00
O2       0.47650    1.08820    0.52350   1.00
O2       0.41180    1.02350    0.52350   1.00
O2       0.52350    0.97650    0.58820   1.00
O2       0.58820    0.97650    0.52350   1.00
O2       0.52350    0.91180    0.52350   1.00
O2       0.52350    1.08820    0.47650   1.00
O2       0.58820    1.02350    0.47650   1.00
O2       0.52350    1.02350    0.41180   1.00
O2       0.41180    0.97650    0.47650   1.00
O2       0.47650    0.91180    0.47650   1.00
O2       0.47650    0.97650    0.41180   1.00
C1       0.50000    1.00000    0.60520   1.00
C1       0.50000    1.10520    0.50000   1.00
C1       0.39480    1.00000    0.50000   1.00
C1       0.60520    1.00000    0.50000   1.00
C1       0.50000    0.89480    0.50000   1.00
C1       0.50000    1.00000    0.39480   1.00
O1       1.00000    0.50000    0.50000   1.00
Zn1      0.96720    0.53280    0.53280   1.00
Zn1      1.03280    0.46720    0.53280   1.00
Zn1      1.03280    0.53280    0.46720   1.00
Zn1      0.96720    0.46720    0.46720   1.00
O2       0.97650    0.52350    0.58820   1.00
O2       0.97650    0.58820    0.52350   1.00
O2       0.91180    0.52350    0.52350   1.00
O2       1.02350    0.47650    0.58820   1.00
O2       1.08820    0.47650    0.52350   1.00
O2       1.02350    0.41180    0.52350   1.00
O2       1.02350    0.58820    0.47650   1.00
O2       1.08820    0.52350    0.47650   1.00
O2       1.02350    0.52350    0.41180   1.00
O2       0.91180    0.47650    0.47650   1.00
O2       0.97650    0.41180    0.47650   1.00
O2       0.97650    0.47650    0.41180   1.00
C1       1.00000    0.50000    0.60520   1.00
C1       1.00000    0.60520    0.50000   1.00
C1       0.89480    0.50000    0.50000   1.00
C1       1.10520    0.50000    0.50000   1.00
C1       1.00000    0.39480    0.50000   1.00
C1       1.00000    0.50000    0.39480   1.00
O1       0.50000    0.50000    0.50000   1.00
Zn1      0.53280    0.46720    0.46720   1.00
Zn1      0.46720    0.53280    0.46720   1.00
Zn1      0.46720    0.46720    0.53280   1.00
Zn1      0.53280    0.53280    0.53280   1.00
O2       0.52350    0.47650    0.41180   1.00
O2       0.52350    0.41180    0.47650   1.00
O2       0.58820    0.47650    0.47650   1.00
O2       0.47650    0.52350    0.41180   1.00
O2       0.41180    0.52350    0.47650   1.00
O2       0.47650    0.58820    0.47650   1.00
O2       0.47650    0.41180    0.52350   1.00
O2       0.41180    0.47650    0.52350   1.00
O2       0.47650    0.47650    0.58820   1.00
O2       0.58820    0.52350    0.52350   1.00
O2       0.52350    0.58820    0.52350   1.00
O2       0.52350    0.52350    0.58820   1.00
C1       0.50000    0.50000    0.39480   1.00
C1       0.50000    0.39480    0.50000   1.00
C1       0.60520    0.50000    0.50000   1.00
C1       0.39480    0.50000    0.50000   1.00
C1       0.50000    0.60520    0.50000   1.00
C1       0.50000    0.50000    0.60520   1.00
O1       1.00000    1.00000    0.50000   1.00
Zn1      1.03280    0.96720    0.46720   1.00
Zn1      0.96720    1.03280    0.46720   1.00
Zn1      0.96720    0.96720    0.53280   1.00
Zn1      1.03280    1.03280    0.53280   1.00
O2       1.02350    0.97650    0.41180   1.00
O2       1.02350    0.91180    0.47650   1.00
O2       1.08820    0.97650    0.47650   1.00
O2       0.97650    1.02350    0.41180   1.00
O2       0.91180    1.02350    0.47650   1.00
O2       0.97650    1.08820    0.47650   1.00
O2       0.97650    0.91180    0.52350   1.00
O2       0.91180    0.97650    0.52350   1.00
O2       0.97650    0.97650    0.58820   1.00
O2       1.08820    1.02350    0.52350   1.00
O2       1.02350    1.08820    0.52350   1.00
O2       1.02350    1.02350    0.58820   1.00
C1       1.00000    1.00000    0.39480   1.00
C1       1.00000    0.89480    0.50000   1.00
C1       1.10520    1.00000    0.50000   1.00
C1       0.89480    1.00000    0.50000   1.00
C1       1.00000    1.10520    0.50000   1.00
C1       1.00000    1.00000    0.60520   1.00
O1       1.00000    0.50000    1.00000   1.00
Zn1      1.03280    0.46720    0.96720   1.00
Zn1      0.96720    0.53280    0.96720   1.00
Zn1      0.96720    0.46720    1.03280   1.00
Zn1      1.03280    0.53280    1.03280   1.00
O2       1.02350    0.47650    0.91180   1.00
O2       1.02350    0.41180    0.97650   1.00
O2       1.08820    0.47650    0.97650   1.00
O2       0.97650    0.52350    0.91180   1.00
O2       0.91180    0.52350    0.97650   1.00
O2       0.97650    0.58820    0.97650   1.00
O2       0.97650    0.41180    1.02350   1.00
O2       0.91180    0.47650    1.02350   1.00
O2       0.97650    0.47650    1.08820   1.00
O2       1.08820    0.52350    1.02350   1.00
O2       1.02350    0.58820    1.02350   1.00
O2       1.02350    0.52350    1.08820   1.00
C1       1.00000    0.50000    0.89480   1.00
C1       1.00000    0.39480    1.00000   1.00
C1       1.10520    0.50000    1.00000   1.00
C1       0.89480    0.50000    1.00000   1.00
C1       1.00000    0.60520    1.00000   1.00
C1       1.00000    0.50000    1.10520   1.00
O1       0.50000    1.00000    1.00000   1.00
Zn1      0.53280    0.96720    0.96720   1.00
Zn1      0.46720    1.03280    0.96720   1.00
Zn1      0.46720    0.96720    1.03280   1.00
Zn1      0.53280    1.03280    1.03280   1.00
O2       0.52350    0.97650    0.91180   1.00
O2       0.52350    0.91180    0.97650   1.00
O2       0.58820    0.97650    0.97650   1.00
O2       0.47650    1.02350    0.91180   1.00
O2       0.41180    1.02350    0.97650   1.00
O2       0.47650    1.08820    0.97650   1.00
O2       0.47650    0.91180    1.02350   1.00
O2       0.41180    0.97650    1.02350   1.00
O2       0.47650    0.97650    1.08820   1.00
O2       0.58820    1.02350    1.02350   1.00
O2       0.52350    1.08820    1.02350   1.00
O2       0.52350    1.02350    1.08820   1.00
C1       0.50000    1.00000    0.89480   1.00
C1       0.50000    0.89480    1.00000   1.00
C1       0.60520    1.00000    1.00000   1.00
C1       0.39480    1.00000    1.00000   1.00
C1       0.50000    1.10520    1.00000   1.00
C1       0.50000    1.00000    1.10520   1.00
C4       0.74940    0.75050    0.97917   1.00
C4       0.75060    0.74950    1.02083   1.00
C3       0.73790    0.78435    0.95846   1.00
C3       0.76394    0.78153    1.04321   1.00
C3       0.76062    0.71784    0.95643   1.00
C3       0.73744    0.71648    1.04187   1.00
C2       0.74890    0.75285    0.89487   1.00
C2       0.75107    0.74747    1.10514   1.00
C3       0.73763    0.78541    0.91715   1.00
C3       0.76420    0.78043    1.08449   1.00
C3       0.76033    0.71907    0.91514   1.00
C3a      0.73765    0.71526    1.08328   1.00
H1       0.72868    0.81011    0.97425   1.00
H1       0.77471    0.80746    1.02875   1.00
H1       0.72856    0.81182    0.90240   1.00
H1       0.77481    0.80548    1.10056   1.00
H1       0.76931    0.69356    0.89882   1.00
C5       0.72301    0.67928    1.10380   1.00
H1       0.72661    0.69130    1.02622   1.00
H1       0.77046    0.69136    0.97059   1.00
H2       0.72563    0.68235    1.13599   1.00
H2       0.69150    0.67562    1.09705   1.00
N1       0.74497    0.64489    1.09125   1.00
C6       0.78345    0.63886    1.09644   1.00
C6       0.73043    0.61334    1.07288   1.00
C6       0.79371    0.60314    1.08102   1.00
C6       0.75999    0.58691    1.06604   1.00
H3       0.80306    0.65929    1.11049   1.00
H3       0.70011    0.60960    1.06484   1.00
H3       0.82255    0.59034    1.08076   1.00
H3       0.75726    0.55890    1.05180   1.00
C4       0.75050    0.97917    0.74940   1.00
C4       0.74950    1.02083    0.75060   1.00
C3       0.78435    0.95846    0.73790   1.00
C3       0.78153    1.04321    0.76394   1.00
C3       0.71784    0.95643    0.76062   1.00
C3       0.71648    1.04187    0.73744   1.00
C2       0.75285    0.89487    0.74890   1.00
C2       0.74747    1.10514    0.75107   1.00
C3       0.78541    0.91715    0.73763   1.00
C3       0.78043    1.08449    0.76420   1.00
C3       0.71907    0.91514    0.76033   1.00
C3a      0.71526    1.08328    0.73765   1.00
H1       0.81011    0.97425    0.72868   1.00
H1       0.80746    1.02875    0.77471   1.00
H1       0.81182    0.90240    0.72856   1.00
H1       0.80548    1.10056    0.77481   1.00
H1       0.69356    0.89882    0.76931   1.00
C5       0.67928    1.10380    0.72301   1.00
H1       0.69130    1.02622    0.72661   1.00
H1       0.69136    0.97059    0.77046   1.00
H2       0.68235    1.13599    0.72563   1.00
H2       0.67562    1.09705    0.69150   1.00
N1       0.64489    1.09125    0.74497   1.00
C6       0.63886    1.09644    0.78345   1.00
C6       0.61334    1.07288    0.73043   1.00
C6       0.60314    1.08102    0.79371   1.00
C6       0.58691    1.06604    0.75999   1.00
H3       0.65929    1.11049    0.80306   1.00
H3       0.60960    1.06484    0.70011   1.00
H3       0.59034    1.08076    0.82255   1.00
H3       0.55890    1.05180    0.75726   1.00
C4       0.52083    0.74940    0.74950   1.00
C4       0.47917    0.75060    0.75050   1.00
C3       0.54154    0.73790    0.71565   1.00
C3       0.45679    0.76394    0.71847   1.00
C3       0.54357    0.76062    0.78216   1.00
C3       0.45813    0.73744    0.78352   1.00
C2       0.60513    0.74890    0.74715   1.00
C2       0.39486    0.75107    0.75253   1.00
C3       0.58285    0.73763    0.71459   1.00
C3       0.41551    0.76420    0.71957   1.00
C3       0.58486    0.76033    0.78093   1.00
C3a      0.41672    0.73765    0.78474   1.00
H1       0.52575    0.72868    0.68989   1.00
H1       0.47125    0.77471    0.69254   1.00
H1       0.59760    0.72856    0.68818   1.00
H1       0.39944    0.77481    0.69452   1.00
H1       0.60118    0.76931    0.80644   1.00
C5       0.39620    0.72301    0.82072   1.00
H1       0.47378    0.72661    0.80870   1.00
H1       0.52941    0.77046    0.80864   1.00
H2       0.36401    0.72563    0.81765   1.00
H2       0.40295    0.69150    0.82438   1.00
N1       0.40875    0.74497    0.85511   1.00
C6       0.40356    0.78345    0.86114   1.00
C6       0.42712    0.73043    0.88666   1.00
C6       0.41898    0.79371    0.89686   1.00
C6       0.43396    0.75999    0.91309   1.00
H3       0.38951    0.80306    0.84071   1.00
H3       0.43516    0.70011    0.89040   1.00
H3       0.41924    0.82255    0.90966   1.00
H3       0.44820    0.75726    0.94110   1.00
C4       0.97917    0.74940    0.75050   1.00
C4       1.02083    0.75060    0.74950   1.00
C3       0.95846    0.73790    0.78435   1.00
C3       1.04321    0.76394    0.78153   1.00
C3       0.95643    0.76062    0.71784   1.00
C3       1.04187    0.73744    0.71648   1.00
C2       0.89487    0.74890    0.75285   1.00
C2       1.10514    0.75107    0.74747   1.00
C3       0.91715    0.73763    0.78541   1.00
C3       1.08449    0.76420    0.78043   1.00
C3       0.91514    0.76033    0.71907   1.00
C3a      1.08328    0.73765    0.71526   1.00
H1       0.97425    0.72868    0.81011   1.00
H1       1.02875    0.77471    0.80746   1.00
H1       0.90240    0.72856    0.81182   1.00
H1       1.10056    0.77481    0.80548   1.00
H1       0.89882    0.76931    0.69356   1.00
C5       1.10380    0.72301    0.67928   1.00
H1       1.02622    0.72661    0.69130   1.00
H1       0.97059    0.77046    0.69136   1.00
H2       1.13599    0.72563    0.68235   1.00
H2       1.09705    0.69150    0.67562   1.00
N1       1.09125    0.74497    0.64489   1.00
C6       1.09644    0.78345    0.63886   1.00
C6       1.07288    0.73043    0.61334   1.00
C6       1.08102    0.79371    0.60314   1.00
C6       1.06604    0.75999    0.58691   1.00
H3       1.11049    0.80306    0.65929   1.00
H3       1.06484    0.70011    0.60960   1.00
H3       1.08076    0.82255    0.59034   1.00
H3       1.05180    0.75726    0.55890   1.00
C4       0.74950    0.52083    0.74940   1.00
C4       0.75050    0.47917    0.75060   1.00
C3       0.71565    0.54154    0.73790   1.00
C3       0.71847    0.45679    0.76394   1.00
C3       0.78216    0.54357    0.76062   1.00
C3       0.78352    0.45813    0.73744   1.00
C2       0.74715    0.60513    0.74890   1.00
C2       0.75253    0.39486    0.75107   1.00
C3       0.71459    0.58285    0.73763   1.00
C3       0.71957    0.41551    0.76420   1.00
C3       0.78093    0.58486    0.76033   1.00
C3a      0.78474    0.41672    0.73765   1.00
H1       0.68989    0.52575    0.72868   1.00
H1       0.69254    0.47125    0.77471   1.00
H1       0.68818    0.59760    0.72856   1.00
H1       0.69452    0.39944    0.77481   1.00
H1       0.80644    0.60118    0.76931   1.00
C5       0.82072    0.39620    0.72301   1.00
H1       0.80870    0.47378    0.72661   1.00
H1       0.80864    0.52941    0.77046   1.00
H2       0.81765    0.36401    0.72563   1.00
H2       0.82438    0.40295    0.69150   1.00
N1       0.85511    0.40875    0.74497   1.00
C6       0.86114    0.40356    0.78345   1.00
C6       0.88666    0.42712    0.73043   1.00
C6       0.89686    0.41898    0.79371   1.00
C6       0.91309    0.43396    0.75999   1.00
H3       0.84071    0.38951    0.80306   1.00
H3       0.89040    0.43516    0.70011   1.00
H3       0.90966    0.41924    0.82255   1.00
H3       0.94110    0.44820    0.75726   1.00
C4       0.74940    0.74950    0.52083   1.00
C4       0.75060    0.75050    0.47917   1.00
C3       0.73790    0.71565    0.54154   1.00
C3       0.76394    0.71847    0.45679   1.00
C3       0.76062    0.78216    0.54357   1.00
C3       0.73744    0.78352    0.45813   1.00
C2       0.74890    0.74715    0.60513   1.00
C2       0.75107    0.75253    0.39486   1.00
C3       0.73763    0.71459    0.58285   1.00
C3       0.76420    0.71957    0.41551   1.00
C3       0.76033    0.78093    0.58486   1.00
C3a      0.73765    0.78474    0.41672   1.00
H1       0.72868    0.68989    0.52575   1.00
H1       0.77471    0.69254    0.47125   1.00
H1       0.72856    0.68818    0.59760   1.00
H1       0.77481    0.69452    0.39944   1.00
H1       0.76931    0.80644    0.60118   1.00
C5       0.72301    0.82072    0.39620   1.00
H1       0.72661    0.80870    0.47378   1.00
H1       0.77046    0.80864    0.52941   1.00
H2       0.72563    0.81765    0.36401   1.00
H2       0.69150    0.82438    0.40295   1.00
N1       0.74497    0.85511    0.40875   1.00
C6       0.78345    0.86114    0.40356   1.00
C6       0.73043    0.88666    0.42712   1.00
C6       0.79371    0.89686    0.41898   1.00
C6       0.75999    0.91309    0.43396   1.00
H3       0.80306    0.84071    0.38951   1.00
H3       0.70011    0.89040    0.43516   1.00
H3       0.82255    0.90966    0.41924   1.00
H3       0.75726    0.94110    0.44820   1.00
C4       0.24940    0.25050    0.97917   1.00
C4       0.25060    0.24950    1.02083   1.00
C3       0.23790    0.28435    0.95846   1.00
C3       0.26394    0.28153    1.04321   1.00
C3       0.26062    0.21784    0.95643   1.00
C3       0.23744    0.21648    1.04187   1.00
C2       0.24890    0.25285    0.89487   1.00
C2       0.25107    0.24747    1.10514   1.00
C3       0.23763    0.28541    0.91715   1.00
C3       0.26420    0.28043    1.08449   1.00
C3       0.26033    0.21907    0.91514   1.00
C3a      0.23765    0.21526    1.08328   1.00
H1       0.22868    0.31011    0.97425   1.00
H1       0.27471    0.30746    1.02875   1.00
H1       0.22856    0.31182    0.90240   1.00
H1       0.27481    0.30548    1.10056   1.00
H1       0.26931    0.19356    0.89882   1.00
C5       0.22301    0.17928    1.10380   1.00
H1       0.22661    0.19130    1.02622   1.00
H1       0.27046    0.19136    0.97059   1.00
H2       0.22563    0.18235    1.13599   1.00
H2       0.19150    0.17562    1.09705   1.00
N1       0.24497    0.14489    1.09125   1.00
C6       0.28345    0.13886    1.09644   1.00
C6       0.23043    0.11334    1.07288   1.00
C6       0.29371    0.10314    1.08102   1.00
C6       0.25999    0.08691    1.06604   1.00
H3       0.30306    0.15929    1.11049   1.00
H3       0.20011    0.10960    1.06484   1.00
H3       0.32255    0.09034    1.08076   1.00
H3       0.25726    0.05890    1.05180   1.00
C4       0.25050    0.47917    0.74940   1.00
C4       0.24950    0.52083    0.75060   1.00
C3       0.28435    0.45846    0.73790   1.00
C3       0.28153    0.54321    0.76394   1.00
C3       0.21784    0.45643    0.76062   1.00
C3       0.21648    0.54187    0.73744   1.00
C2       0.25285    0.39487    0.74890   1.00
C2       0.24747    0.60514    0.75107   1.00
C3       0.28541    0.41715    0.73763   1.00
C3       0.28043    0.58449    0.76420   1.00
C3       0.21907    0.41514    0.76033   1.00
C3a      0.21526    0.58328    0.73765   1.00
H1       0.31011    0.47425    0.72868   1.00
H1       0.30746    0.52875    0.77471   1.00
H1       0.31182    0.40240    0.72856   1.00
H1       0.30548    0.60056    0.77481   1.00
H1       0.19356    0.39882    0.76931   1.00
C5       0.17928    0.60380    0.72301   1.00
H1       0.19130    0.52622    0.72661   1.00
H1       0.19136    0.47059    0.77046   1.00
H2       0.18235    0.63599    0.72563   1.00
H2       0.17562    0.59705    0.69150   1.00
N1       0.14489    0.59125    0.74497   1.00
C6       0.13886    0.59644    0.78345   1.00
C6       0.11334    0.57288    0.73043   1.00
C6       0.10314    0.58102    0.79371   1.00
C6       0.08691    0.56604    0.75999   1.00
H3       0.15929    0.61049    0.80306   1.00
H3       0.10960    0.56484    0.70011   1.00
H3       0.09034    0.58076    0.82255   1.00
H3       0.05890    0.55180    0.75726   1.00
C4       0.02083    0.24940    0.74950   1.00
C4       -0.02083   0.25060    0.75050   1.00
C3       0.04154    0.23790    0.71565   1.00
C3       -0.04321   0.26394    0.71847   1.00
C3       0.04357    0.26062    0.78216   1.00
C3       -0.04187   0.23744    0.78352   1.00
C2       0.10513    0.24890    0.74715   1.00
C2       -0.10514   0.25107    0.75253   1.00
C3       0.08285    0.23763    0.71459   1.00
C3       -0.08449   0.26420    0.71957   1.00
C3       0.08486    0.26033    0.78093   1.00
C3a      -0.08328   0.23765    0.78474   1.00
H1       0.02575    0.22868    0.68989   1.00
H1       -0.02875   0.27471    0.69254   1.00
H1       0.09760    0.22856    0.68818   1.00
H1       -0.10056   0.27481    0.69452   1.00
H1       0.10118    0.26931    0.80644   1.00
C5       -0.10380   0.22301    0.82072   1.00
H1       -0.02622   0.22661    0.80870   1.00
H1       0.02941    0.27046    0.80864   1.00
H2       -0.13599   0.22563    0.81765   1.00
H2       -0.09705   0.19150    0.82438   1.00
N1       -0.09125   0.24497    0.85511   1.00
C6       -0.09644   0.28345    0.86114   1.00
C6       -0.07288   0.23043    0.88666   1.00
C6       -0.08102   0.29371    0.89686   1.00
C6       -0.06604   0.25999    0.91309   1.00
H3       -0.11049   0.30306    0.84071   1.00
H3       -0.06484   0.20011    0.89040   1.00
H3       -0.08076   0.32255    0.90966   1.00
H3       -0.05180   0.25726    0.94110   1.00
C4       0.47917    0.24940    0.75050   1.00
C4       0.52083    0.25060    0.74950   1.00
C3       0.45846    0.23790    0.78435   1.00
C3       0.54321    0.26394    0.78153   1.00
C3       0.45643    0.26062    0.71784   1.00
C3       0.54187    0.23744    0.71648   1.00
C2       0.39487    0.24890    0.75285   1.00
C2       0.60514    0.25107    0.74747   1.00
C3       0.41715    0.23763    0.78541   1.00
C3       0.58449    0.26420    0.78043   1.00
C3       0.41514    0.26033    0.71907   1.00
C3a      0.58328    0.23765    0.71526   1.00
H1       0.47425    0.22868    0.81011   1.00
H1       0.52875    0.27471    0.80746   1.00
H1       0.40240    0.22856    0.81182   1.00
H1       0.60056    0.27481    0.80548   1.00
H1       0.39882    0.26931    0.69356   1.00
C5       0.60380    0.22301    0.67928   1.00
H1       0.52622    0.22661    0.69130   1.00
H1       0.47059    0.27046    0.69136   1.00
H2       0.63599    0.22563    0.68235   1.00
H2       0.59705    0.19150    0.67562   1.00
N1       0.59125    0.24497    0.64489   1.00
C6       0.59644    0.28345    0.63886   1.00
C6       0.57288    0.23043    0.61334   1.00
C6       0.58102    0.29371    0.60314   1.00
C6       0.56604    0.25999    0.58691   1.00
H3       0.61049    0.30306    0.65929   1.00
H3       0.56484    0.20011    0.60960   1.00
H3       0.58076    0.32255    0.59034   1.00
H3       0.55180    0.25726    0.55890   1.00
C4       0.24950    0.02083    0.74940   1.00
C4       0.25050    -0.02083   0.75060   1.00
C3       0.21565    0.04154    0.73790   1.00
C3       0.21847    -0.04321   0.76394   1.00
C3       0.28216    0.04357    0.76062   1.00
C3       0.28352    -0.04187   0.73744   1.00
C2       0.24715    0.10513    0.74890   1.00
C2       0.25253    -0.10514   0.75107   1.00
C3       0.21459    0.08285    0.73763   1.00
C3       0.21957    -0.08449   0.76420   1.00
C3       0.28093    0.08486    0.76033   1.00
C3a      0.28474    -0.08328   0.73765   1.00
H1       0.18989    0.02575    0.72868   1.00
H1       0.19254    -0.02875   0.77471   1.00
H1       0.18818    0.09760    0.72856   1.00
H1       0.19452    -0.10056   0.77481   1.00
H1       0.30644    0.10118    0.76931   1.00
C5       0.32072    -0.10380   0.72301   1.00
H1       0.30870    -0.02622   0.72661   1.00
H1       0.30864    0.02941    0.77046   1.00
H2       0.31765    -0.13599   0.72563   1.00
H2       0.32438    -0.09705   0.69150   1.00
N1       0.35511    -0.09125   0.74497   1.00
C6       0.36114    -0.09644   0.78345   1.00
C6       0.38666    -0.07288   0.73043   1.00
C6       0.39686    -0.08102   0.79371   1.00
C6       0.41309    -0.06604   0.75999   1.00
H3       0.34071    -0.11049   0.80306   1.00
H3       0.39040    -0.06484   0.70011   1.00
H3       0.40966    -0.08076   0.82255   1.00
H3       0.44110    -0.05180   0.75726   1.00
C4       0.24940    0.24950    0.52083   1.00
C4       0.25060    0.25050    0.47917   1.00
C3       0.23790    0.21565    0.54154   1.00
C3       0.26394    0.21847    0.45679   1.00
C3       0.26062    0.28216    0.54357   1.00
C3       0.23744    0.28352    0.45813   1.00
C2       0.24890    0.24715    0.60513   1.00
C2       0.25107    0.25253    0.39486   1.00
C3       0.23763    0.21459    0.58285   1.00
C3       0.26420    0.21957    0.41551   1.00
C3       0.26033    0.28093    0.58486   1.00
C3a      0.23765    0.28474    0.41672   1.00
H1       0.22868    0.18989    0.52575   1.00
H1       0.27471    0.19254    0.47125   1.00
H1       0.22856    0.18818    0.59760   1.00
H1       0.27481    0.19452    0.39944   1.00
H1       0.26931    0.30644    0.60118   1.00
C5       0.22301    0.32072    0.39620   1.00
H1       0.22661    0.30870    0.47378   1.00
H1       0.27046    0.30864    0.52941   1.00
H2       0.22563    0.31765    0.36401   1.00
H2       0.19150    0.32438    0.40295   1.00
N1       0.24497    0.35511    0.40875   1.00
C6       0.28345    0.36114    0.40356   1.00
C6       0.23043    0.38666    0.42712   1.00
C6       0.29371    0.39686    0.41898   1.00
C6       0.25999    0.41309    0.43396   1.00
H3       0.30306    0.34071    0.38951   1.00
H3       0.20011    0.39040    0.43516   1.00
H3       0.32255    0.40966    0.41924   1.00
H3       0.25726    0.44110    0.44820   1.00
C4       0.24940    0.75050    0.47917   1.00
C4       0.25060    0.74950    0.52083   1.00
C3       0.23790    0.78435    0.45846   1.00
C3       0.26394    0.78153    0.54321   1.00
C3       0.26062    0.71784    0.45643   1.00
C3       0.23744    0.71648    0.54187   1.00
C2       0.24890    0.75285    0.39487   1.00
C2       0.25107    0.74747    0.60514   1.00
C3       0.23763    0.78541    0.41715   1.00
C3       0.26420    0.78043    0.58449   1.00
C3       0.26033    0.71907    0.41514   1.00
C3a      0.23765    0.71526    0.58328   1.00
H1       0.22868    0.81011    0.47425   1.00
H1       0.27471    0.80746    0.52875   1.00
H1       0.22856    0.81182    0.40240   1.00
H1       0.27481    0.80548    0.60056   1.00
H1       0.26931    0.69356    0.39882   1.00
C5       0.22301    0.67928    0.60380   1.00
H1       0.22661    0.69130    0.52622   1.00
H1       0.27046    0.69136    0.47059   1.00
H2       0.22563    0.68235    0.63599   1.00
H2       0.19150    0.67562    0.59705   1.00
N1       0.24497    0.64489    0.59125   1.00
C6       0.28345    0.63886    0.59644   1.00
C6       0.23043    0.61334    0.57288   1.00
C6       0.29371    0.60314    0.58102   1.00
C6       0.25999    0.58691    0.56604   1.00
H3       0.30306    0.65929    0.61049   1.00
H3       0.20011    0.60960    0.56484   1.00
H3       0.32255    0.59034    0.58076   1.00
H3       0.25726    0.55890    0.55180   1.00
C4       0.25050    0.97917    0.24940   1.00
C4       0.24950    1.02083    0.25060   1.00
C3       0.28435    0.95846    0.23790   1.00
C3       0.28153    1.04321    0.26394   1.00
C3       0.21784    0.95643    0.26062   1.00
C3       0.21648    1.04187    0.23744   1.00
C2       0.25285    0.89487    0.24890   1.00
C2       0.24747    1.10514    0.25107   1.00
C3       0.28541    0.91715    0.23763   1.00
C3       0.28043    1.08449    0.26420   1.00
C3       0.21907    0.91514    0.26033   1.00
C3a      0.21526    1.08328    0.23765   1.00
H1       0.31011    0.97425    0.22868   1.00
H1       0.30746    1.02875    0.27471   1.00
H1       0.31182    0.90240    0.22856   1.00
H1       0.30548    1.10056    0.27481   1.00
H1       0.19356    0.89882    0.26931   1.00
C5       0.17928    1.10380    0.22301   1.00
H1       0.19130    1.02622    0.22661   1.00
H1       0.19136    0.97059    0.27046   1.00
H2       0.18235    1.13599    0.22563   1.00
H2       0.17562    1.09705    0.19150   1.00
N1       0.14489    1.09125    0.24497   1.00
C6       0.13886    1.09644    0.28345   1.00
C6       0.11334    1.07288    0.23043   1.00
C6       0.10314    1.08102    0.29371   1.00
C6       0.08691    1.06604    0.25999   1.00
H3       0.15929    1.11049    0.30306   1.00
H3       0.10960    1.06484    0.20011   1.00
H3       0.09034    1.08076    0.32255   1.00
H3       0.05890    1.05180    0.25726   1.00
C4       0.02083    0.74940    0.24950   1.00
C4       -0.02083   0.75060    0.25050   1.00
C3       0.04154    0.73790    0.21565   1.00
C3       -0.04321   0.76394    0.21847   1.00
C3       0.04357    0.76062    0.28216   1.00
C3       -0.04187   0.73744    0.28352   1.00
C2       0.10513    0.74890    0.24715   1.00
C2       -0.10514   0.75107    0.25253   1.00
C3       0.08285    0.73763    0.21459   1.00
C3       -0.08449   0.76420    0.21957   1.00
C3       0.08486    0.76033    0.28093   1.00
C3a      -0.08328   0.73765    0.28474   1.00
H1       0.02575    0.72868    0.18989   1.00
H1       -0.02875   0.77471    0.19254   1.00
H1       0.09760    0.72856    0.18818   1.00
H1       -0.10056   0.77481    0.19452   1.00
H1       0.10118    0.76931    0.30644   1.00
C5       -0.10380   0.72301    0.32072   1.00
H1       -0.02622   0.72661    0.30870   1.00
H1       0.02941    0.77046    0.30864   1.00
H2       -0.13599   0.72563    0.31765   1.00
H2       -0.09705   0.69150    0.32438   1.00
N1       -0.09125   0.74497    0.35511   1.00
C6       -0.09644   0.78345    0.36114   1.00
C6       -0.07288   0.73043    0.38666   1.00
C6       -0.08102   0.79371    0.39686   1.00
C6       -0.06604   0.75999    0.41309   1.00
H3       -0.11049   0.80306    0.34071   1.00
H3       -0.06484   0.70011    0.39040   1.00
H3       -0.08076   0.82255    0.40966   1.00
H3       -0.05180   0.75726    0.44110   1.00
C4       0.47917    0.74940    0.25050   1.00
C4       0.52083    0.75060    0.24950   1.00
C3       0.45846    0.73790    0.28435   1.00
C3       0.54321    0.76394    0.28153   1.00
C3       0.45643    0.76062    0.21784   1.00
C3       0.54187    0.73744    0.21648   1.00
C2       0.39487    0.74890    0.25285   1.00
C2       0.60514    0.75107    0.24747   1.00
C3       0.41715    0.73763    0.28541   1.00
C3       0.58449    0.76420    0.28043   1.00
C3       0.41514    0.76033    0.21907   1.00
C3a      0.58328    0.73765    0.21526   1.00
H1       0.47425    0.72868    0.31011   1.00
H1       0.52875    0.77471    0.30746   1.00
H1       0.40240    0.72856    0.31182   1.00
H1       0.60056    0.77481    0.30548   1.00
H1       0.39882    0.76931    0.19356   1.00
C5       0.60380    0.72301    0.17928   1.00
H1       0.52622    0.72661    0.19130   1.00
H1       0.47059    0.77046    0.19136   1.00
H2       0.63599    0.72563    0.18235   1.00
H2       0.59705    0.69150    0.17562   1.00
N1       0.59125    0.74497    0.14489   1.00
C6       0.59644    0.78345    0.13886   1.00
C6       0.57288    0.73043    0.11334   1.00
C6       0.58102    0.79371    0.10314   1.00
C6       0.56604    0.75999    0.08691   1.00
H3       0.61049    0.80306    0.15929   1.00
H3       0.56484    0.70011    0.10960   1.00
H3       0.58076    0.82255    0.09034   1.00
H3       0.55180    0.75726    0.05890   1.00
C4       0.24950    0.52083    0.24940   1.00
C4       0.25050    0.47917    0.25060   1.00
C3       0.21565    0.54154    0.23790   1.00
C3       0.21847    0.45679    0.26394   1.00
C3       0.28216    0.54357    0.26062   1.00
C3       0.28352    0.45813    0.23744   1.00
C2       0.24715    0.60513    0.24890   1.00
C2       0.25253    0.39486    0.25107   1.00
C3       0.21459    0.58285    0.23763   1.00
C3       0.21957    0.41551    0.26420   1.00
C3       0.28093    0.58486    0.26033   1.00
C3a      0.28474    0.41672    0.23765   1.00
H1       0.18989    0.52575    0.22868   1.00
H1       0.19254    0.47125    0.27471   1.00
H1       0.18818    0.59760    0.22856   1.00
H1       0.19452    0.39944    0.27481   1.00
H1       0.30644    0.60118    0.26931   1.00
C5       0.32072    0.39620    0.22301   1.00
H1       0.30870    0.47378    0.22661   1.00
H1       0.30864    0.52941    0.27046   1.00
H2       0.31765    0.36401    0.22563   1.00
H2       0.32438    0.40295    0.19150   1.00
N1       0.35511    0.40875    0.24497   1.00
C6       0.36114    0.40356    0.28345   1.00
C6       0.38666    0.42712    0.23043   1.00
C6       0.39686    0.41898    0.29371   1.00
C6       0.41309    0.43396    0.25999   1.00
H3       0.34071    0.38951    0.30306   1.00
H3       0.39040    0.43516    0.20011   1.00
H3       0.40966    0.41924    0.32255   1.00
H3       0.44110    0.44820    0.25726   1.00
C4       0.24940    0.74950    0.02083   1.00
C4       0.25060    0.75050    -0.02083   1.00
C3       0.23790    0.71565    0.04154   1.00
C3       0.26394    0.71847    -0.04321   1.00
C3       0.26062    0.78216    0.04357   1.00
C3       0.23744    0.78352    -0.04187   1.00
C2       0.24890    0.74715    0.10513   1.00
C2       0.25107    0.75253    -0.10514   1.00
C3       0.23763    0.71459    0.08285   1.00
C3       0.26420    0.71957    -0.08449   1.00
C3       0.26033    0.78093    0.08486   1.00
C3a      0.23765    0.78474    -0.08328   1.00
H1       0.22868    0.68989    0.02575   1.00
H1       0.27471    0.69254    -0.02875   1.00
H1       0.22856    0.68818    0.09760   1.00
H1       0.27481    0.69452    -0.10056   1.00
H1       0.26931    0.80644    0.10118   1.00
C5       0.22301    0.82072    -0.10380   1.00
H1       0.22661    0.80870    -0.02622   1.00
H1       0.27046    0.80864    0.02941   1.00
H2       0.22563    0.81765    -0.13599   1.00
H2       0.19150    0.82438    -0.09705   1.00
N1       0.24497    0.85511    -0.09125   1.00
C6       0.28345    0.86114    -0.09644   1.00
C6       0.23043    0.88666    -0.07288   1.00
C6       0.29371    0.89686    -0.08102   1.00
C6       0.25999    0.91309    -0.06604   1.00
H3       0.30306    0.84071    -0.11049   1.00
H3       0.20011    0.89040    -0.06484   1.00
H3       0.32255    0.90966    -0.08076   1.00
H3       0.25726    0.94110    -0.05180   1.00
C4       0.74940    0.25050    0.47917   1.00
C4       0.75060    0.24950    0.52083   1.00
C3       0.73790    0.28435    0.45846   1.00
C3       0.76394    0.28153    0.54321   1.00
C3       0.76062    0.21784    0.45643   1.00
C3       0.73744    0.21648    0.54187   1.00
C2       0.74890    0.25285    0.39487   1.00
C2       0.75107    0.24747    0.60514   1.00
C3       0.73763    0.28541    0.41715   1.00
C3       0.76420    0.28043    0.58449   1.00
C3       0.76033    0.21907    0.41514   1.00
C3a      0.73765    0.21526    0.58328   1.00
H1       0.72868    0.31011    0.47425   1.00
H1       0.77471    0.30746    0.52875   1.00
H1       0.72856    0.31182    0.40240   1.00
H1       0.77481    0.30548    0.60056   1.00
H1       0.76931    0.19356    0.39882   1.00
C5       0.72301    0.17928    0.60380   1.00
H1       0.72661    0.19130    0.52622   1.00
H1       0.77046    0.19136    0.47059   1.00
H2       0.72563    0.18235    0.63599   1.00
H2       0.69150    0.17562    0.59705   1.00
N1       0.74497    0.14489    0.59125   1.00
C6       0.78345    0.13886    0.59644   1.00
C6       0.73043    0.11334    0.57288   1.00
C6       0.79371    0.10314    0.58102   1.00
C6       0.75999    0.08691    0.56604   1.00
H3       0.80306    0.15929    0.61049   1.00
H3       0.70011    0.10960    0.56484   1.00
H3       0.82255    0.09034    0.58076   1.00
H3       0.75726    0.05890    0.55180   1.00
C4       0.75050    0.47917    0.24940   1.00
C4       0.74950    0.52083    0.25060   1.00
C3       0.78435    0.45846    0.23790   1.00
C3       0.78153    0.54321    0.26394   1.00
C3       0.71784    0.45643    0.26062   1.00
C3       0.71648    0.54187    0.23744   1.00
C2       0.75285    0.39487    0.24890   1.00
C2       0.74747    0.60514    0.25107   1.00
C3       0.78541    0.41715    0.23763   1.00
C3       0.78043    0.58449    0.26420   1.00
C3       0.71907    0.41514    0.26033   1.00
C3a      0.71526    0.58328    0.23765   1.00
H1       0.81011    0.47425    0.22868   1.00
H1       0.80746    0.52875    0.27471   1.00
H1       0.81182    0.40240    0.22856   1.00
H1       0.80548    0.60056    0.27481   1.00
H1       0.69356    0.39882    0.26931   1.00
C5       0.67928    0.60380    0.22301   1.00
H1       0.69130    0.52622    0.22661   1.00
H1       0.69136    0.47059    0.27046   1.00
H2       0.68235    0.63599    0.22563   1.00
H2       0.67562    0.59705    0.19150   1.00
N1       0.64489    0.59125    0.24497   1.00
C6       0.63886    0.59644    0.28345   1.00
C6       0.61334    0.57288    0.23043   1.00
C6       0.60314    0.58102    0.29371   1.00
C6       0.58691    0.56604    0.25999   1.00
H3       0.65929    0.61049    0.30306   1.00
H3       0.60960    0.56484    0.20011   1.00
H3       0.59034    0.58076    0.32255   1.00
H3       0.55890    0.55180    0.25726   1.00
C4       0.52083    0.24940    0.24950   1.00
C4       0.47917    0.25060    0.25050   1.00
C3       0.54154    0.23790    0.21565   1.00
C3       0.45679    0.26394    0.21847   1.00
C3       0.54357    0.26062    0.28216   1.00
C3       0.45813    0.23744    0.28352   1.00
C2       0.60513    0.24890    0.24715   1.00
C2       0.39486    0.25107    0.25253   1.00
C3       0.58285    0.23763    0.21459   1.00
C3       0.41551    0.26420    0.21957   1.00
C3       0.58486    0.26033    0.28093   1.00
C3a      0.41672    0.23765    0.28474   1.00
H1       0.52575    0.22868    0.18989   1.00
H1       0.47125    0.27471    0.19254   1.00
H1       0.59760    0.22856    0.18818   1.00
H1       0.39944    0.27481    0.19452   1.00
H1       0.60118    0.26931    0.30644   1.00
C5       0.39620    0.22301    0.32072   1.00
H1       0.47378    0.22661    0.30870   1.00
H1       0.52941    0.27046    0.30864   1.00
H2       0.36401    0.22563    0.31765   1.00
H2       0.40295    0.19150    0.32438   1.00
N1       0.40875    0.24497    0.35511   1.00
C6       0.40356    0.28345    0.36114   1.00
C6       0.42712    0.23043    0.38666   1.00
C6       0.41898    0.29371    0.39686   1.00
C6       0.43396    0.25999    0.41309   1.00
H3       0.38951    0.30306    0.34071   1.00
H3       0.43516    0.20011    0.39040   1.00
H3       0.41924    0.32255    0.40966   1.00
H3       0.44820    0.25726    0.44110   1.00
C4       0.97917    0.24940    0.25050   1.00
C4       1.02083    0.25060    0.24950   1.00
C3       0.95846    0.23790    0.28435   1.00
C3       1.04321    0.26394    0.28153   1.00
C3       0.95643    0.26062    0.21784   1.00
C3       1.04187    0.23744    0.21648   1.00
C2       0.89487    0.24890    0.25285   1.00
C2       1.10514    0.25107    0.24747   1.00
C3       0.91715    0.23763    0.28541   1.00
C3       1.08449    0.26420    0.28043   1.00
C3       0.91514    0.26033    0.21907   1.00
C3a      1.08328    0.23765    0.21526   1.00
H1       0.97425    0.22868    0.31011   1.00
H1       1.02875    0.27471    0.30746   1.00
H1       0.90240    0.22856    0.31182   1.00
H1       1.10056    0.27481    0.30548   1.00
H1       0.89882    0.26931    0.19356   1.00
C5       1.10380    0.22301    0.17928   1.00
H1       1.02622    0.22661    0.19130   1.00
H1       0.97059    0.27046    0.19136   1.00
H2       1.13599    0.22563    0.18235   1.00
H2       1.09705    0.19150    0.17562   1.00
N1       1.09125    0.24497    0.14489   1.00
C6       1.09644    0.28345    0.13886   1.00
C6       1.07288    0.23043    0.11334   1.00
C6       1.08102    0.29371    0.10314   1.00
C6       1.06604    0.25999    0.08691   1.00
H3       1.11049    0.30306    0.15929   1.00
H3       1.06484    0.20011    0.10960   1.00
H3       1.08076    0.32255    0.09034   1.00
H3       1.05180    0.25726    0.05890   1.00
C4       0.74950    0.02083    0.24940   1.00
C4       0.75050    -0.02083   0.25060   1.00
C3       0.71565    0.04154    0.23790   1.00
C3       0.71847    -0.04321   0.26394   1.00
C3       0.78216    0.04357    0.26062   1.00
C3       0.78352    -0.04187   0.23744   1.00
C2       0.74715    0.10513    0.24890   1.00
C2       0.75253    -0.10514   0.25107   1.00
C3       0.71459    0.08285    0.23763   1.00
C3       0.71957    -0.08449   0.26420   1.00
C3       0.78093    0.08486    0.26033   1.00
C3a      0.78474    -0.08328   0.23765   1.00
H1       0.68989    0.02575    0.22868   1.00
H1       0.69254    -0.02875   0.27471   1.00
H1       0.68818    0.09760    0.22856   1.00
H1       0.69452    -0.10056   0.27481   1.00
H1       0.80644    0.10118    0.26931   1.00
C5       0.82072    -0.10380   0.22301   1.00
H1       0.80870    -0.02622   0.22661   1.00
H1       0.80864    0.02941    0.27046   1.00
H2       0.81765    -0.13599   0.22563   1.00
H2       0.82438    -0.09705   0.19150   1.00
N1       0.85511    -0.09125   0.24497   1.00
C6       0.86114    -0.09644   0.28345   1.00
C6       0.88666    -0.07288   0.23043   1.00
C6       0.89686    -0.08102   0.29371   1.00
C6       0.91309    -0.06604   0.25999   1.00
H3       0.84071    -0.11049   0.30306   1.00
H3       0.89040    -0.06484   0.20011   1.00
H3       0.90966    -0.08076   0.32255   1.00
H3       0.94110    -0.05180   0.25726   1.00
C4       0.74940    0.24950    0.02083   1.00
C4       0.75060    0.25050    -0.02083   1.00
C3       0.73790    0.21565    0.04154   1.00
C3       0.76394    0.21847    -0.04321   1.00
C3       0.76062    0.28216    0.04357   1.00
C3       0.73744    0.28352    -0.04187   1.00
C2       0.74890    0.24715    0.10513   1.00
C2       0.75107    0.25253    -0.10514   1.00
C3       0.73763    0.21459    0.08285   1.00
C3       0.76420    0.21957    -0.08449   1.00
C3       0.76033    0.28093    0.08486   1.00
C3a      0.73765    0.28474    -0.08328   1.00
H1       0.72868    0.18989    0.02575   1.00
H1       0.77471    0.19254    -0.02875   1.00
H1       0.72856    0.18818    0.09760   1.00
H1       0.77481    0.19452    -0.10056   1.00
H1       0.76931    0.30644    0.10118   1.00
C5       0.72301    0.32072    -0.10380   1.00
H1       0.72661    0.30870    -0.02622   1.00
H1       0.77046    0.30864    0.02941   1.00
H2       0.72563    0.31765    -0.13599   1.00
H2       0.69150    0.32438    -0.09705   1.00
N1       0.74497    0.35511    -0.09125   1.00
C6       0.78345    0.36114    -0.09644   1.00
C6       0.73043    0.38666    -0.07288   1.00
C6       0.79371    0.39686    -0.08102   1.00
C6       0.75999    0.41309    -0.06604   1.00
H3       0.80306    0.34071    -0.11049   1.00
H3       0.70011    0.39040    -0.06484   1.00
H3       0.82255    0.40966    -0.08076   1.00
H3       0.75726    0.44110    -0.05180   1.00
C4       0.99940    1.00050    1.22917   1.00
C4       1.00060    0.99950    1.27083   1.00
C3       0.98790    1.03435    1.20846   1.00
C3       1.01394    1.03153    1.29321   1.00
C3       1.01062    0.96784    1.20643   1.00
C3       0.98744    0.96648    1.29187   1.00
C2       0.99890    1.00285    1.14487   1.00
C2       1.00107    0.99747    1.35514   1.00
C3       0.98763    1.03541    1.16715   1.00
C3       1.01420    1.03043    1.33449   1.00
C3       1.01033    0.96907    1.16514   1.00
C3a      0.98765    0.96526    1.33328   1.00
H1       0.97868    1.06011    1.22425   1.00
H1       1.02471    1.05746    1.27875   1.00
H1       0.97856    1.06182    1.15240   1.00
H1       1.02481    1.05548    1.35056   1.00
H1       1.01931    0.94356    1.14882   1.00
C5       0.97301    0.92928    1.35380   1.00
H1       0.97661    0.94130    1.27622   1.00
H1       1.02046    0.94136    1.22059   1.00
H2       0.97563    0.93235    1.38599   1.00
H2       0.94150    0.92562    1.34705   1.00
N1       0.99497    0.89489    1.34125   1.00
C6       1.03345    0.88886    1.34644   1.00
C6       0.98043    0.86334    1.32288   1.00
C6       1.04371    0.85314    1.33102   1.00
C6       1.00999    0.83691    1.31604   1.00
H3       1.05306    0.90929    1.36049   1.00
H3       0.95011    0.85960    1.31484   1.00
H3       1.07255    0.84034    1.33076   1.00
H3       1.00726    0.80890    1.30180   1.00
C4       1.00050    1.22917    0.99940   1.00
C4       0.99950    1.27083    1.00060   1.00
C3       1.03435    1.20846    0.98790   1.00
C3       1.03153    1.29321    1.01394   1.00
C3       0.96784    1.20643    1.01062   1.00
C3       0.96648    1.29187    0.98744   1.00
C2       1.00285    1.14487    0.99890   1.00
C2       0.99747    1.35514    1.00107   1.00
C3       1.03541    1.16715    0.98763   1.00
C3       1.03043    1.33449    1.01420   1.00
C3       0.96907    1.16514    1.01033   1.00
C3a      0.96526    1.33328    0.98765   1.00
H1       1.06011    1.22425    0.97868   1.00
H1       1.05746    1.27875    1.02471   1.00
H1       1.06182    1.15240    0.97856   1.00
H1       1.05548    1.35056    1.02481   1.00
H1       0.94356    1.14882    1.01931   1.00
C5       0.92928    1.35380    0.97301   1.00
H1       0.94130    1.27622    0.97661   1.00
H1       0.94136    1.22059    1.02046   1.00
H2       0.93235    1.38599    0.97563   1.00
H2       0.92562    1.34705    0.94150   1.00
N1       0.89489    1.34125    0.99497   1.00
C6       0.88886    1.34644    1.03345   1.00
C6       0.86334    1.32288    0.98043   1.00
C6       0.85314    1.33102    1.04371   1.00
C6       0.83691    1.31604    1.00999   1.00
H3       0.90929    1.36049    1.05306   1.00
H3       0.85960    1.31484    0.95011   1.00
H3       0.84034    1.33076    1.07255   1.00
H3       0.80890    1.30180    1.00726   1.00
C4       0.77083    0.99940    0.99950   1.00
C4       0.72917    1.00060    1.00050   1.00
C3       0.79154    0.98790    0.96565   1.00
C3       0.70679    1.01394    0.96847   1.00
C3       0.79357    1.01062    1.03216   1.00
C3       0.70813    0.98744    1.03352   1.00
C2       0.85513    0.99890    0.99715   1.00
C2       0.64486    1.00107    1.00253   1.00
C3       0.83285    0.98763    0.96459   1.00
C3       0.66551    1.01420    0.96957   1.00
C3       0.83486    1.01033    1.03093   1.00
C3a      0.66672    0.98765    1.03474   1.00
H1       0.77575    0.97868    0.93989   1.00
H1       0.72125    1.02471    0.94254   1.00
H1       0.84760    0.97856    0.93818   1.00
H1       0.64944    1.02481    0.94452   1.00
H1       0.85118    1.01931    1.05644   1.00
C5       0.64620    0.97301    1.07072   1.00
H1       0.72378    0.97661    1.05870   1.00
H1       0.77941    1.02046    1.05864   1.00
H2       0.61401    0.97563    1.06765   1.00
H2       0.65295    0.94150    1.07438   1.00
N1       0.65875    0.99497    1.10511   1.00
C6       0.65356    1.03345    1.11114   1.00
C6       0.67712    0.98043    1.13666   1.00
C6       0.66898    1.04371    1.14686   1.00
C6       0.68396    1.00999    1.16309   1.00
H3       0.63951    1.05306    1.09071   1.00
H3       0.68516    0.95011    1.14040   1.00
H3       0.66924    1.07255    1.15966   1.00
H3       0.69820    1.00726    1.19110   1.00
C4       1.22917    0.99940    1.00050   1.00
C4       1.27083    1.00060    0.99950   1.00
C3       1.20846    0.98790    1.03435   1.00
C3       1.29321    1.01394    1.03153   1.00
C3       1.20643    1.01062    0.96784   1.00
C3       1.29187    0.98744    0.96648   1.00
C2       1.14487    0.99890    1.00285   1.00
C2       1.35514    1.00107    0.99747   1.00
C3       1.16715    0.98763    1.03541   1.00
C3       1.33449    1.01420    1.03043   1.00
C3       1.16514    1.01033    0.96907   1.00
C3a      1.33328    0.98765    0.96526   1.00
H1       1.22425    0.97868    1.06011   1.00
H1       1.27875    1.02471    1.05746   1.00
H1       1.15240    0.97856    1.06182   1.00
H1       1.35056    1.02481    1.05548   1.00
H1       1.14882    1.01931    0.94356   1.00
C5       1.35380    0.97301    0.92928   1.00
H1       1.27622    0.97661    0.94130   1.00
H1       1.22059    1.02046    0.94136   1.00
H2       1.38599    0.97563    0.93235   1.00
H2       1.34705    0.94150    0.92562   1.00
N1       1.34125    0.99497    0.89489   1.00
C6       1.34644    1.03345    0.88886   1.00
C6       1.32288    0.98043    0.86334   1.00
C6       1.33102    1.04371    0.85314   1.00
C6       1.31604    1.00999    0.83691   1.00
H3       1.36049    1.05306    0.90929   1.00
H3       1.31484    0.95011    0.85960   1.00
H3       1.33076    1.07255    0.84034   1.00
H3       1.30180    1.00726    0.80890   1.00
C4       0.99950    0.77083    0.99940   1.00
C4       1.00050    0.72917    1.00060   1.00
C3       0.96565    0.79154    0.98790   1.00
C3       0.96847    0.70679    1.01394   1.00
C3       1.03216    0.79357    1.01062   1.00
C3       1.03352    0.70813    0.98744   1.00
C2       0.99715    0.85513    0.99890   1.00
C2       1.00253    0.64486    1.00107   1.00
C3       0.96459    0.83285    0.98763   1.00
C3       0.96957    0.66551    1.01420   1.00
C3       1.03093    0.83486    1.01033   1.00
C3a      1.03474    0.66672    0.98765   1.00
H1       0.93989    0.77575    0.97868   1.00
H1       0.94254    0.72125    1.02471   1.00
H1       0.93818    0.84760    0.97856   1.00
H1       0.94452    0.64944    1.02481   1.00
H1       1.05644    0.85118    1.01931   1.00
C5       1.07072    0.64620    0.97301   1.00
H1       1.05870    0.72378    0.97661   1.00
H1       1.05864    0.77941    1.02046   1.00
H2       1.06765    0.61401    0.97563   1.00
H2       1.07438    0.65295    0.94150   1.00
N1       1.10511    0.65875    0.99497   1.00
C6       1.11114    0.65356    1.03345   1.00
C6       1.13666    0.67712    0.98043   1.00
C6       1.14686    0.66898    1.04371   1.00
C6       1.16309    0.68396    1.00999   1.00
H3       1.09071    0.63951    1.05306   1.00
H3       1.14040    0.68516    0.95011   1.00
H3       1.15966    0.66924    1.07255   1.00
H3       1.19110    0.69820    1.00726   1.00
C4       0.99940    0.99950    0.77083   1.00
C4       1.00060    1.00050    0.72917   1.00
C3       0.98790    0.96565    0.79154   1.00
C3       1.01394    0.96847    0.70679   1.00
C3       1.01062    1.03216    0.79357   1.00
C3       0.98744    1.03352    0.70813   1.00
C2       0.99890    0.99715    0.85513   1.00
C2       1.00107    1.00253    0.64486   1.00
C3       0.98763    0.96459    0.83285   1.00
C3       1.01420    0.96957    0.66551   1.00
C3       1.01033    1.03093    0.83486   1.00
C3a      0.98765    1.03474    0.66672   1.00
H1       0.97868    0.93989    0.77575   1.00
H1       1.02471    0.94254    0.72125   1.00
H1       0.97856    0.93818    0.84760   1.00
H1       1.02481    0.94452    0.64944   1.00
H1       1.01931    1.05644    0.85118   1.00
C5       0.97301    1.07072    0.64620   1.00
H1       0.97661    1.05870    0.72378   1.00
H1       1.02046    1.05864    0.77941   1.00
H2       0.97563    1.06765    0.61401   1.00
H2       0.94150    1.07438    0.65295   1.00
N1       0.99497    1.10511    0.65875   1.00
C6       1.03345    1.11114    0.65356   1.00
C6       0.98043    1.13666    0.67712   1.00
C6       1.04371    1.14686    0.66898   1.00
C6       1.00999    1.16309    0.68396   1.00
H3       1.05306    1.09071    0.63951   1.00
H3       0.95011    1.14040    0.68516   1.00
H3       1.07255    1.15966    0.66924   1.00
H3       1.00726    1.19110    0.69820   1.00
C4       0.49940    0.50050    1.22917   1.00
C4       0.50060    0.49950    1.27083   1.00
C3       0.48790    0.53435    1.20846   1.00
C3       0.51394    0.53153    1.29321   1.00
C3       0.51062    0.46784    1.20643   1.00
C3       0.48744    0.46648    1.29187   1.00
C2       0.49890    0.50285    1.14487   1.00
C2       0.50107    0.49747    1.35514   1.00
C3       0.48763    0.53541    1.16715   1.00
C3       0.51420    0.53043    1.33449   1.00
C3       0.51033    0.46907    1.16514   1.00
C3a      0.48765    0.46526    1.33328   1.00
H1       0.47868    0.56011    1.22425   1.00
H1       0.52471    0.55746    1.27875   1.00
H1       0.47856    0.56182    1.15240   1.00
H1       0.52481    0.55548    1.35056   1.00
H1       0.51931    0.44356    1.14882   1.00
C5       0.47301    0.42928    1.35380   1.00
H1       0.47661    0.44130    1.27622   1.00
H1       0.52046    0.44136    1.22059   1.00
H2       0.47563    0.43235    1.38599   1.00
H2       0.44150    0.42562    1.34705   1.00
N1       0.49497    0.39489    1.34125   1.00
C6       0.53345    0.38886    1.34644   1.00
C6       0.48043    0.36334    1.32288   1.00
C6       0.54371    0.35314    1.33102   1.00
C6       0.50999    0.33691    1.31604   1.00
H3       0.55306    0.40929    1.36049   1.00
H3       0.45011    0.35960    1.31484   1.00
H3       0.57255    0.34034    1.33076   1.00
H3       0.50726    0.30890    1.30180   1.00
C4       0.50050    0.72917    0.99940   1.00
C4       0.49950    0.77083    1.00060   1.00
C3       0.53435    0.70846    0.98790   1.00
C3       0.53153    0.79321    1.01394   1.00
C3       0.46784    0.70643    1.01062   1.00
C3       0.46648    0.79187    0.98744   1.00
C2       0.50285    0.64487    0.99890   1.00
C2       0.49747    0.85514    1.00107   1.00
C3       0.53541    0.66715    0.98763   1.00
C3       0.53043    0.83449    1.01420   1.00
C3       0.46907    0.66514    1.01033   1.00
C3a      0.46526    0.83328    0.98765   1.00
H1       0.56011    0.72425    0.97868   1.00
H1       0.55746    0.77875    1.02471   1.00
H1       0.56182    0.65240    0.97856   1.00
H1       0.55548    0.85056    1.02481   1.00
H1       0.44356    0.64882    1.01931   1.00
C5       0.42928    0.85380    0.97301   1.00
H1       0.44130    0.77622    0.97661   1.00
H1       0.44136    0.72059    1.02046   1.00
H2       0.43235    0.88599    0.97563   1.00
H2       0.42562    0.84705    0.94150   1.00
N1       0.39489    0.84125    0.99497   1.00
C6       0.38886    0.84644    1.03345   1.00
C6       0.36334    0.82288    0.98043   1.00
C6       0.35314    0.83102    1.04371   1.00
C6       0.33691    0.81604    1.00999   1.00
H3       0.40929    0.86049    1.05306   1.00
H3       0.35960    0.81484    0.95011   1.00
H3       0.34034    0.83076    1.07255   1.00
H3       0.30890    0.80180    1.00726   1.00
C4       0.27083    0.49940    0.99950   1.00
C4       0.22917    0.50060    1.00050   1.00
C3       0.29154    0.48790    0.96565   1.00
C3       0.20679    0.51394    0.96847   1.00
C3       0.29357    0.51062    1.03216   1.00
C3       0.20813    0.48744    1.03352   1.00
C2       0.35513    0.49890    0.99715   1.00
C2       0.14486    0.50107    1.00253   1.00
C3       0.33285    0.48763    0.96459   1.00
C3       0.16551    0.51420    0.96957   1.00
C3       0.33486    0.51033    1.03093   1.00
C3a      0.16672    0.48765    1.03474   1.00
H1       0.27575    0.47868    0.93989   1.00
H1       0.22125    0.52471    0.94254   1.00
H1       0.34760    0.47856    0.93818   1.00
H1       0.14944    0.52481    0.94452   1.00
H1       0.35118    0.51931    1.05644   1.00
C5       0.14620    0.47301    1.07072   1.00
H1       0.22378    0.47661    1.05870   1.00
H1       0.27941    0.52046    1.05864   1.00
H2       0.11401    0.47563    1.06765   1.00
H2       0.15295    0.44150    1.07438   1.00
N1       0.15875    0.49497    1.10511   1.00
C6       0.15356    0.53345    1.11114   1.00
C6       0.17712    0.48043    1.13666   1.00
C6       0.16898    0.54371    1.14686   1.00
C6       0.18396    0.50999    1.16309   1.00
H3       0.13951    0.55306    1.09071   1.00
H3       0.18516    0.45011    1.14040   1.00
H3       0.16924    0.57255    1.15966   1.00
H3       0.19820    0.50726    1.19110   1.00
C4       0.72917    0.49940    1.00050   1.00
C4       0.77083    0.50060    0.99950   1.00
C3       0.70846    0.48790    1.03435   1.00
C3       0.79321    0.51394    1.03153   1.00
C3       0.70643    0.51062    0.96784   1.00
C3       0.79187    0.48744    0.96648   1.00
C2       0.64487    0.49890    1.00285   1.00
C2       0.85514    0.50107    0.99747   1.00
C3       0.66715    0.48763    1.03541   1.00
C3       0.83449    0.51420    1.03043   1.00
C3       0.66514    0.51033    0.96907   1.00
C3a      0.83328    0.48765    0.96526   1.00
H1       0.72425    0.47868    1.06011   1.00
H1       0.77875    0.52471    1.05746   1.00
H1       0.65240    0.47856    1.06182   1.00
H1       0.85056    0.52481    1.05548   1.00
H1       0.64882    0.51931    0.94356   1.00
C5       0.85380    0.47301    0.92928   1.00
H1       0.77622    0.47661    0.94130   1.00
H1       0.72059    0.52046    0.94136   1.00
H2       0.88599    0.47563    0.93235   1.00
H2       0.84705    0.44150    0.92562   1.00
N1       0.84125    0.49497    0.89489   1.00
C6       0.84644    0.53345    0.88886   1.00
C6       0.82288    0.48043    0.86334   1.00
C6       0.83102    0.54371    0.85314   1.00
C6       0.81604    0.50999    0.83691   1.00
H3       0.86049    0.55306    0.90929   1.00
H3       0.81484    0.45011    0.85960   1.00
H3       0.83076    0.57255    0.84034   1.00
H3       0.80180    0.50726    0.80890   1.00
C4       0.49950    0.27083    0.99940   1.00
C4       0.50050    0.22917    1.00060   1.00
C3       0.46565    0.29154    0.98790   1.00
C3       0.46847    0.20679    1.01394   1.00
C3       0.53216    0.29357    1.01062   1.00
C3       0.53352    0.20813    0.98744   1.00
C2       0.49715    0.35513    0.99890   1.00
C2       0.50253    0.14486    1.00107   1.00
C3       0.46459    0.33285    0.98763   1.00
C3       0.46957    0.16551    1.01420   1.00
C3       0.53093    0.33486    1.01033   1.00
C3a      0.53474    0.16672    0.98765   1.00
H1       0.43989    0.27575    0.97868   1.00
H1       0.44254    0.22125    1.02471   1.00
H1       0.43818    0.34760    0.97856   1.00
H1       0.44452    0.14944    1.02481   1.00
H1       0.55644    0.35118    1.01931   1.00
C5       0.57072    0.14620    0.97301   1.00
H1       0.55870    0.22378    0.97661   1.00
H1       0.55864    0.27941    1.02046   1.00
H2       0.56765    0.11401    0.97563   1.00
H2       0.57438    0.15295    0.94150   1.00
N1       0.60511    0.15875    0.99497   1.00
C6       0.61114    0.15356    1.03345   1.00
C6       0.63666    0.17712    0.98043   1.00
C6       0.64686    0.16898    1.04371   1.00
C6       0.66309    0.18396    1.00999   1.00
H3       0.59071    0.13951    1.05306   1.00
H3       0.64040    0.18516    0.95011   1.00
H3       0.65966    0.16924    1.07255   1.00
H3       0.69110    0.19820    1.00726   1.00
C4       0.49940    0.49950    0.77083   1.00
C4       0.50060    0.50050    0.72917   1.00
C3       0.48790    0.46565    0.79154   1.00
C3       0.51394    0.46847    0.70679   1.00
C3       0.51062    0.53216    0.79357   1.00
C3       0.48744    0.53352    0.70813   1.00
C2       0.49890    0.49715    0.85513   1.00
C2       0.50107    0.50253    0.64486   1.00
C3       0.48763    0.46459    0.83285   1.00
C3       0.51420    0.46957    0.66551   1.00
C3       0.51033    0.53093    0.83486   1.00
C3a      0.48765    0.53474    0.66672   1.00
H1       0.47868    0.43989    0.77575   1.00
H1       0.52471    0.44254    0.72125   1.00
H1       0.47856    0.43818    0.84760   1.00
H1       0.52481    0.44452    0.64944   1.00
H1       0.51931    0.55644    0.85118   1.00
C5       0.47301    0.57072    0.64620   1.00
H1       0.47661    0.55870    0.72378   1.00
H1       0.52046    0.55864    0.77941   1.00
H2       0.47563    0.56765    0.61401   1.00
H2       0.44150    0.57438    0.65295   1.00
N1       0.49497    0.60511    0.65875   1.00
C6       0.53345    0.61114    0.65356   1.00
C6       0.48043    0.63666    0.67712   1.00
C6       0.54371    0.64686    0.66898   1.00
C6       0.50999    0.66309    0.68396   1.00
H3       0.55306    0.59071    0.63951   1.00
H3       0.45011    0.64040    0.68516   1.00
H3       0.57255    0.65966    0.66924   1.00
H3       0.50726    0.69110    0.69820   1.00
C4       0.49940    1.00050    0.72917   1.00
C4       0.50060    0.99950    0.77083   1.00
C3       0.48790    1.03435    0.70846   1.00
C3       0.51394    1.03153    0.79321   1.00
C3       0.51062    0.96784    0.70643   1.00
C3       0.48744    0.96648    0.79187   1.00
C2       0.49890    1.00285    0.64487   1.00
C2       0.50107    0.99747    0.85514   1.00
C3       0.48763    1.03541    0.66715   1.00
C3       0.51420    1.03043    0.83449   1.00
C3       0.51033    0.96907    0.66514   1.00
C3a      0.48765    0.96526    0.83328   1.00
H1       0.47868    1.06011    0.72425   1.00
H1       0.52471    1.05746    0.77875   1.00
H1       0.47856    1.06182    0.65240   1.00
H1       0.52481    1.05548    0.85056   1.00
H1       0.51931    0.94356    0.64882   1.00
C5       0.47301    0.92928    0.85380   1.00
H1       0.47661    0.94130    0.77622   1.00
H1       0.52046    0.94136    0.72059   1.00
H2       0.47563    0.93235    0.88599   1.00
H2       0.44150    0.92562    0.84705   1.00
N1       0.49497    0.89489    0.84125   1.00
C6       0.53345    0.88886    0.84644   1.00
C6       0.48043    0.86334    0.82288   1.00
C6       0.54371    0.85314    0.83102   1.00
C6       0.50999    0.83691    0.81604   1.00
H3       0.55306    0.90929    0.86049   1.00
H3       0.45011    0.85960    0.81484   1.00
H3       0.57255    0.84034    0.83076   1.00
H3       0.50726    0.80890    0.80180   1.00
C4       0.50050    1.22917    0.49940   1.00
C4       0.49950    1.27083    0.50060   1.00
C3       0.53435    1.20846    0.48790   1.00
C3       0.53153    1.29321    0.51394   1.00
C3       0.46784    1.20643    0.51062   1.00
C3       0.46648    1.29187    0.48744   1.00
C2       0.50285    1.14487    0.49890   1.00
C2       0.49747    1.35514    0.50107   1.00
C3       0.53541    1.16715    0.48763   1.00
C3       0.53043    1.33449    0.51420   1.00
C3       0.46907    1.16514    0.51033   1.00
C3a      0.46526    1.33328    0.48765   1.00
H1       0.56011    1.22425    0.47868   1.00
H1       0.55746    1.27875    0.52471   1.00
H1       0.56182    1.15240    0.47856   1.00
H1       0.55548    1.35056    0.52481   1.00
H1       0.44356    1.14882    0.51931   1.00
C5       0.42928    1.35380    0.47301   1.00
H1       0.44130    1.27622    0.47661   1.00
H1       0.44136    1.22059    0.52046   1.00
H2       0.43235    1.38599    0.47563   1.00
H2       0.42562    1.34705    0.44150   1.00
N1       0.39489    1.34125    0.49497   1.00
C6       0.38886    1.34644    0.53345   1.00
C6       0.36334    1.32288    0.48043   1.00
C6       0.35314    1.33102    0.54371   1.00
C6       0.33691    1.31604    0.50999   1.00
H3       0.40929    1.36049    0.55306   1.00
H3       0.35960    1.31484    0.45011   1.00
H3       0.34034    1.33076    0.57255   1.00
H3       0.30890    1.30180    0.50726   1.00
C4       0.27083    0.99940    0.49950   1.00
C4       0.22917    1.00060    0.50050   1.00
C3       0.29154    0.98790    0.46565   1.00
C3       0.20679    1.01394    0.46847   1.00
C3       0.29357    1.01062    0.53216   1.00
C3       0.20813    0.98744    0.53352   1.00
C2       0.35513    0.99890    0.49715   1.00
C2       0.14486    1.00107    0.50253   1.00
C3       0.33285    0.98763    0.46459   1.00
C3       0.16551    1.01420    0.46957   1.00
C3       0.33486    1.01033    0.53093   1.00
C3a      0.16672    0.98765    0.53474   1.00
H1       0.27575    0.97868    0.43989   1.00
H1       0.22125    1.02471    0.44254   1.00
H1       0.34760    0.97856    0.43818   1.00
H1       0.14944    1.02481    0.44452   1.00
H1       0.35118    1.01931    0.55644   1.00
C5       0.14620    0.97301    0.57072   1.00
H1       0.22378    0.97661    0.55870   1.00
H1       0.27941    1.02046    0.55864   1.00
H2       0.11401    0.97563    0.56765   1.00
H2       0.15295    0.94150    0.57438   1.00
N1       0.15875    0.99497    0.60511   1.00
C6       0.15356    1.03345    0.61114   1.00
C6       0.17712    0.98043    0.63666   1.00
C6       0.16898    1.04371    0.64686   1.00
C6       0.18396    1.00999    0.66309   1.00
H3       0.13951    1.05306    0.59071   1.00
H3       0.18516    0.95011    0.64040   1.00
H3       0.16924    1.07255    0.65966   1.00
H3       0.19820    1.00726    0.69110   1.00
C4       0.72917    0.99940    0.50050   1.00
C4       0.77083    1.00060    0.49950   1.00
C3       0.70846    0.98790    0.53435   1.00
C3       0.79321    1.01394    0.53153   1.00
C3       0.70643    1.01062    0.46784   1.00
C3       0.79187    0.98744    0.46648   1.00
C2       0.64487    0.99890    0.50285   1.00
C2       0.85514    1.00107    0.49747   1.00
C3       0.66715    0.98763    0.53541   1.00
C3       0.83449    1.01420    0.53043   1.00
C3       0.66514    1.01033    0.46907   1.00
C3a      0.83328    0.98765    0.46526   1.00
H1       0.72425    0.97868    0.56011   1.00
H1       0.77875    1.02471    0.55746   1.00
H1       0.65240    0.97856    0.56182   1.00
H1       0.85056    1.02481    0.55548   1.00
H1       0.64882    1.01931    0.44356   1.00
C5       0.85380    0.97301    0.42928   1.00
H1       0.77622    0.97661    0.44130   1.00
H1       0.72059    1.02046    0.44136   1.00
H2       0.88599    0.97563    0.43235   1.00
H2       0.84705    0.94150    0.42562   1.00
N1       0.84125    0.99497    0.39489   1.00
C6       0.84644    1.03345    0.38886   1.00
C6       0.82288    0.98043    0.36334   1.00
C6       0.83102    1.04371    0.35314   1.00
C6       0.81604    1.00999    0.33691   1.00
H3       0.86049    1.05306    0.40929   1.00
H3       0.81484    0.95011    0.35960   1.00
H3       0.83076    1.07255    0.34034   1.00
H3       0.80180    1.00726    0.30890   1.00
C4       0.49950    0.77083    0.49940   1.00
C4       0.50050    0.72917    0.50060   1.00
C3       0.46565    0.79154    0.48790   1.00
C3       0.46847    0.70679    0.51394   1.00
C3       0.53216    0.79357    0.51062   1.00
C3       0.53352    0.70813    0.48744   1.00
C2       0.49715    0.85513    0.49890   1.00
C2       0.50253    0.64486    0.50107   1.00
C3       0.46459    0.83285    0.48763   1.00
C3       0.46957    0.66551    0.51420   1.00
C3       0.53093    0.83486    0.51033   1.00
C3a      0.53474    0.66672    0.48765   1.00
H1       0.43989    0.77575    0.47868   1.00
H1       0.44254    0.72125    0.52471   1.00
H1       0.43818    0.84760    0.47856   1.00
H1       0.44452    0.64944    0.52481   1.00
H1       0.55644    0.85118    0.51931   1.00
C5       0.57072    0.64620    0.47301   1.00
H1       0.55870    0.72378    0.47661   1.00
H1       0.55864    0.77941    0.52046   1.00
H2       0.56765    0.61401    0.47563   1.00
H2       0.57438    0.65295    0.44150   1.00
N1       0.60511    0.65875    0.49497   1.00
C6       0.61114    0.65356    0.53345   1.00
C6       0.63666    0.67712    0.48043   1.00
C6       0.64686    0.66898    0.54371   1.00
C6       0.66309    0.68396    0.50999   1.00
H3       0.59071    0.63951    0.55306   1.00
H3       0.64040    0.68516    0.45011   1.00
H3       0.65966    0.66924    0.57255   1.00
H3       0.69110    0.69820    0.50726   1.00
C4       0.49940    0.99950    0.27083   1.00
C4       0.50060    1.00050    0.22917   1.00
C3       0.48790    0.96565    0.29154   1.00
C3       0.51394    0.96847    0.20679   1.00
C3       0.51062    1.03216    0.29357   1.00
C3       0.48744    1.03352    0.20813   1.00
C2       0.49890    0.99715    0.35513   1.00
C2       0.50107    1.00253    0.14486   1.00
C3       0.48763    0.96459    0.33285   1.00
C3       0.51420    0.96957    0.16551   1.00
C3       0.51033    1.03093    0.33486   1.00
C3a      0.48765    1.03474    0.16672   1.00
H1       0.47868    0.93989    0.27575   1.00
H1       0.52471    0.94254    0.22125   1.00
H1       0.47856    0.93818    0.34760   1.00
H1       0.52481    0.94452    0.14944   1.00
H1       0.51931    1.05644    0.35118   1.00
C5       0.47301    1.07072    0.14620   1.00
H1       0.47661    1.05870    0.22378   1.00
H1       0.52046    1.05864    0.27941   1.00
H2       0.47563    1.06765    0.11401   1.00
H2       0.44150    1.07438    0.15295   1.00
N1       0.49497    1.10511    0.15875   1.00
C6       0.53345    1.11114    0.15356   1.00
C6       0.48043    1.13666    0.17712   1.00
C6       0.54371    1.14686    0.16898   1.00
C6       0.50999    1.16309    0.18396   1.00
H3       0.55306    1.09071    0.13951   1.00
H3       0.45011    1.14040    0.18516   1.00
H3       0.57255    1.15966    0.16924   1.00
H3       0.50726    1.19110    0.19820   1.00
C4       0.99940    0.50050    0.72917   1.00
C4       1.00060    0.49950    0.77083   1.00
C3       0.98790    0.53435    0.70846   1.00
C3       1.01394    0.53153    0.79321   1.00
C3       1.01062    0.46784    0.70643   1.00
C3       0.98744    0.46648    0.79187   1.00
C2       0.99890    0.50285    0.64487   1.00
C2       1.00107    0.49747    0.85514   1.00
C3       0.98763    0.53541    0.66715   1.00
C3       1.01420    0.53043    0.83449   1.00
C3       1.01033    0.46907    0.66514   1.00
C3a      0.98765    0.46526    0.83328   1.00
H1       0.97868    0.56011    0.72425   1.00
H1       1.02471    0.55746    0.77875   1.00
H1       0.97856    0.56182    0.65240   1.00
H1       1.02481    0.55548    0.85056   1.00
H1       1.01931    0.44356    0.64882   1.00
C5       0.97301    0.42928    0.85380   1.00
H1       0.97661    0.44130    0.77622   1.00
H1       1.02046    0.44136    0.72059   1.00
H2       0.97563    0.43235    0.88599   1.00
H2       0.94150    0.42562    0.84705   1.00
N1       0.99497    0.39489    0.84125   1.00
C6       1.03345    0.38886    0.84644   1.00
C6       0.98043    0.36334    0.82288   1.00
C6       1.04371    0.35314    0.83102   1.00
C6       1.00999    0.33691    0.81604   1.00
H3       1.05306    0.40929    0.86049   1.00
H3       0.95011    0.35960    0.81484   1.00
H3       1.07255    0.34034    0.83076   1.00
H3       1.00726    0.30890    0.80180   1.00
C4       1.00050    0.72917    0.49940   1.00
C4       0.99950    0.77083    0.50060   1.00
C3       1.03435    0.70846    0.48790   1.00
C3       1.03153    0.79321    0.51394   1.00
C3       0.96784    0.70643    0.51062   1.00
C3       0.96648    0.79187    0.48744   1.00
C2       1.00285    0.64487    0.49890   1.00
C2       0.99747    0.85514    0.50107   1.00
C3       1.03541    0.66715    0.48763   1.00
C3       1.03043    0.83449    0.51420   1.00
C3       0.96907    0.66514    0.51033   1.00
C3a      0.96526    0.83328    0.48765   1.00
H1       1.06011    0.72425    0.47868   1.00
H1       1.05746    0.77875    0.52471   1.00
H1       1.06182    0.65240    0.47856   1.00
H1       1.05548    0.85056    0.52481   1.00
H1       0.94356    0.64882    0.51931   1.00
C5       0.92928    0.85380    0.47301   1.00
H1       0.94130    0.77622    0.47661   1.00
H1       0.94136    0.72059    0.52046   1.00
H2       0.93235    0.88599    0.47563   1.00
H2       0.92562    0.84705    0.44150   1.00
N1       0.89489    0.84125    0.49497   1.00
C6       0.88886    0.84644    0.53345   1.00
C6       0.86334    0.82288    0.48043   1.00
C6       0.85314    0.83102    0.54371   1.00
C6       0.83691    0.81604    0.50999   1.00
H3       0.90929    0.86049    0.55306   1.00
H3       0.85960    0.81484    0.45011   1.00
H3       0.84034    0.83076    0.57255   1.00
H3       0.80890    0.80180    0.50726   1.00
C4       0.77083    0.49940    0.49950   1.00
C4       0.72917    0.50060    0.50050   1.00
C3       0.79154    0.48790    0.46565   1.00
C3       0.70679    0.51394    0.46847   1.00
C3       0.79357    0.51062    0.53216   1.00
C3       0.70813    0.48744    0.53352   1.00
C2       0.85513    0.49890    0.49715   1.00
C2       0.64486    0.50107    0.50253   1.00
C3       0.83285    0.48763    0.46459   1.00
C3       0.66551    0.51420    0.46957   1.00
C3       0.83486    0.51033    0.53093   1.00
C3a      0.66672    0.48765    0.53474   1.00
H1       0.77575    0.47868    0.43989   1.00
H1       0.72125    0.52471    0.44254   1.00
H1       0.84760    0.47856    0.43818   1.00
H1       0.64944    0.52481    0.44452   1.00
H1       0.85118    0.51931    0.55644   1.00
C5       0.64620    0.47301    0.57072   1.00
H1       0.72378    0.47661    0.55870   1.00
H1       0.77941    0.52046    0.55864   1.00
H2       0.61401    0.47563    0.56765   1.00
H2       0.65295    0.44150    0.57438   1.00
N1       0.65875    0.49497    0.60511   1.00
C6       0.65356    0.53345    0.61114   1.00
C6       0.67712    0.48043    0.63666   1.00
C6       0.66898    0.54371    0.64686   1.00
C6       0.68396    0.50999    0.66309   1.00
H3       0.63951    0.55306    0.59071   1.00
H3       0.68516    0.45011    0.64040   1.00
H3       0.66924    0.57255    0.65966   1.00
H3       0.69820    0.50726    0.69110   1.00
C4       1.22917    0.49940    0.50050   1.00
C4       1.27083    0.50060    0.49950   1.00
C3       1.20846    0.48790    0.53435   1.00
C3       1.29321    0.51394    0.53153   1.00
C3       1.20643    0.51062    0.46784   1.00
C3       1.29187    0.48744    0.46648   1.00
C2       1.14487    0.49890    0.50285   1.00
C2       1.35514    0.50107    0.49747   1.00
C3       1.16715    0.48763    0.53541   1.00
C3       1.33449    0.51420    0.53043   1.00
C3       1.16514    0.51033    0.46907   1.00
C3a      1.33328    0.48765    0.46526   1.00
H1       1.22425    0.47868    0.56011   1.00
H1       1.27875    0.52471    0.55746   1.00
H1       1.15240    0.47856    0.56182   1.00
H1       1.35056    0.52481    0.55548   1.00
H1       1.14882    0.51931    0.44356   1.00
C5       1.35380    0.47301    0.42928   1.00
H1       1.27622    0.47661    0.44130   1.00
H1       1.22059    0.52046    0.44136   1.00
H2       1.38599    0.47563    0.43235   1.00
H2       1.34705    0.44150    0.42562   1.00
N1       1.34125    0.49497    0.39489   1.00
C6       1.34644    0.53345    0.38886   1.00
C6       1.32288    0.48043    0.36334   1.00
C6       1.33102    0.54371    0.35314   1.00
C6       1.31604    0.50999    0.33691   1.00
H3       1.36049    0.55306    0.40929   1.00
H3       1.31484    0.45011    0.35960   1.00
H3       1.33076    0.57255    0.34034   1.00
H3       1.30180    0.50726    0.30890   1.00
C4       0.99950    0.27083    0.49940   1.00
C4       1.00050    0.22917    0.50060   1.00
C3       0.96565    0.29154    0.48790   1.00
C3       0.96847    0.20679    0.51394   1.00
C3       1.03216    0.29357    0.51062   1.00
C3       1.03352    0.20813    0.48744   1.00
C2       0.99715    0.35513    0.49890   1.00
C2       1.00253    0.14486    0.50107   1.00
C3       0.96459    0.33285    0.48763   1.00
C3       0.96957    0.16551    0.51420   1.00
C3       1.03093    0.33486    0.51033   1.00
C3a      1.03474    0.16672    0.48765   1.00
H1       0.93989    0.27575    0.47868   1.00
H1       0.94254    0.22125    0.52471   1.00
H1       0.93818    0.34760    0.47856   1.00
H1       0.94452    0.14944    0.52481   1.00
H1       1.05644    0.35118    0.51931   1.00
C5       1.07072    0.14620    0.47301   1.00
H1       1.05870    0.22378    0.47661   1.00
H1       1.05864    0.27941    0.52046   1.00
H2       1.06765    0.11401    0.47563   1.00
H2       1.07438    0.15295    0.44150   1.00
N1       1.10511    0.15875    0.49497   1.00
C6       1.11114    0.15356    0.53345   1.00
C6       1.13666    0.17712    0.48043   1.00
C6       1.14686    0.16898    0.54371   1.00
C6       1.16309    0.18396    0.50999   1.00
H3       1.09071    0.13951    0.55306   1.00
H3       1.14040    0.18516    0.45011   1.00
H3       1.15966    0.16924    0.57255   1.00
H3       1.19110    0.19820    0.50726   1.00
C4       0.99940    0.49950    0.27083   1.00
C4       1.00060    0.50050    0.22917   1.00
C3       0.98790    0.46565    0.29154   1.00
C3       1.01394    0.46847    0.20679   1.00
C3       1.01062    0.53216    0.29357   1.00
C3       0.98744    0.53352    0.20813   1.00
C2       0.99890    0.49715    0.35513   1.00
C2       1.00107    0.50253    0.14486   1.00
C3       0.98763    0.46459    0.33285   1.00
C3       1.01420    0.46957    0.16551   1.00
C3       1.01033    0.53093    0.33486   1.00
C3a      0.98765    0.53474    0.16672   1.00
H1       0.97868    0.43989    0.27575   1.00
H1       1.02471    0.44254    0.22125   1.00
H1       0.97856    0.43818    0.34760   1.00
H1       1.02481    0.44452    0.14944   1.00
H1       1.01931    0.55644    0.35118   1.00
C5       0.97301    0.57072    0.14620   1.00
H1       0.97661    0.55870    0.22378   1.00
H1       1.02046    0.55864    0.27941   1.00
H2       0.97563    0.56765    0.11401   1.00
H2       0.94150    0.57438    0.15295   1.00
N1       0.99497    0.60511    0.15875   1.00
C6       1.03345    0.61114    0.15356   1.00
C6       0.98043    0.63666    0.17712   1.00
C6       1.04371    0.64686    0.16898   1.00
C6       1.00999    0.66309    0.18396   1.00
H3       1.05306    0.59071    0.13951   1.00
H3       0.95011    0.64040    0.18516   1.00
H3       1.07255    0.65966    0.16924   1.00
H3       1.00726    0.69110    0.19820   1.00
