data_IRMOF10_SG202_interpen_Ligand9lp_label_g.

_audit_creation_method             'generated by an auxiliary program of Tobunporous'

_symmetry_space_group_name_H-M     'P 1'
_symmetry_Int_Tables_number        1
_symmetry_cell_setting             triclinic

_cell_length_a                    34.2800
_cell_length_b                    34.2800
_cell_length_c                    34.2800
_cell_angle_alpha                 90.0000
_cell_angle_beta                  90.0000
_cell_angle_gamma                 90.0000

loop_
_atom_site_label
_atom_site_fract_x
_atom_site_fract_y
_atom_site_fract_z
_atom_site_occupancy
O1       0.75000    0.75000    0.75000   1.00
Zn1      0.71720    0.78280    0.78280   1.00
Zn1      0.78280    0.71720    0.78280   1.00
Zn1      0.78280    0.78280    0.71720   1.00
Zn1      0.71720    0.71720    0.71720   1.00
O2       0.72650    0.77350    0.83820   1.00
O2       0.72650    0.83820    0.77350   1.00
O2       0.66180    0.77350    0.77350   1.00
O2       0.77350    0.72650    0.83820   1.00
O2       0.83820    0.72650    0.77350   1.00
O2       0.77350    0.66180    0.77350   1.00
O2       0.77350    0.83820    0.72650   1.00
O2       0.83820    0.77350    0.72650   1.00
O2       0.77350    0.77350    0.66180   1.00
O2       0.66180    0.72650    0.72650   1.00
O2       0.72650    0.66180    0.72650   1.00
O2       0.72650    0.72650    0.66180   1.00
C1       0.75000    0.75000    0.85520   1.00
C1       0.75000    0.85520    0.75000   1.00
C1       0.64480    0.75000    0.75000   1.00
C1       0.85520    0.75000    0.75000   1.00
C1       0.75000    0.64480    0.75000   1.00
C1       0.75000    0.75000    0.64480   1.00
O1       0.25000    0.25000    0.75000   1.00
Zn1      0.21720    0.28280    0.78280   1.00
Zn1      0.28280    0.21720    0.78280   1.00
Zn1      0.28280    0.28280    0.71720   1.00
Zn1      0.21720    0.21720    0.71720   1.00
O2       0.22650    0.27350    0.83820   1.00
O2       0.22650    0.33820    0.77350   1.00
O2       0.16180    0.27350    0.77350   1.00
O2       0.27350    0.22650    0.83820   1.00
O2       0.33820    0.22650    0.77350   1.00
O2       0.27350    0.16180    0.77350   1.00
O2       0.27350    0.33820    0.72650   1.00
O2       0.33820    0.27350    0.72650   1.00
O2       0.27350    0.27350    0.66180   1.00
O2       0.16180    0.22650    0.72650   1.00
O2       0.22650    0.16180    0.72650   1.00
O2       0.22650    0.22650    0.66180   1.00
C1       0.25000    0.25000    0.85520   1.00
C1       0.25000    0.35520    0.75000   1.00
C1       0.14480    0.25000    0.75000   1.00
C1       0.35520    0.25000    0.75000   1.00
C1       0.25000    0.14480    0.75000   1.00
C1       0.25000    0.25000    0.64480   1.00
O1       0.25000    0.75000    0.25000   1.00
Zn1      0.21720    0.78280    0.28280   1.00
Zn1      0.28280    0.71720    0.28280   1.00
Zn1      0.28280    0.78280    0.21720   1.00
Zn1      0.21720    0.71720    0.21720   1.00
O2       0.22650    0.77350    0.33820   1.00
O2       0.22650    0.83820    0.27350   1.00
O2       0.16180    0.77350    0.27350   1.00
O2       0.27350    0.72650    0.33820   1.00
O2       0.33820    0.72650    0.27350   1.00
O2       0.27350    0.66180    0.27350   1.00
O2       0.27350    0.83820    0.22650   1.00
O2       0.33820    0.77350    0.22650   1.00
O2       0.27350    0.77350    0.16180   1.00
O2       0.16180    0.72650    0.22650   1.00
O2       0.22650    0.66180    0.22650   1.00
O2       0.22650    0.72650    0.16180   1.00
C1       0.25000    0.75000    0.35520   1.00
C1       0.25000    0.85520    0.25000   1.00
C1       0.14480    0.75000    0.25000   1.00
C1       0.35520    0.75000    0.25000   1.00
C1       0.25000    0.64480    0.25000   1.00
C1       0.25000    0.75000    0.14480   1.00
O1       0.75000    0.25000    0.25000   1.00
Zn1      0.71720    0.28280    0.28280   1.00
Zn1      0.78280    0.21720    0.28280   1.00
Zn1      0.78280    0.28280    0.21720   1.00
Zn1      0.71720    0.21720    0.21720   1.00
O2       0.72650    0.27350    0.33820   1.00
O2       0.72650    0.33820    0.27350   1.00
O2       0.66180    0.27350    0.27350   1.00
O2       0.77350    0.22650    0.33820   1.00
O2       0.83820    0.22650    0.27350   1.00
O2       0.77350    0.16180    0.27350   1.00
O2       0.77350    0.33820    0.22650   1.00
O2       0.83820    0.27350    0.22650   1.00
O2       0.77350    0.27350    0.16180   1.00
O2       0.66180    0.22650    0.22650   1.00
O2       0.72650    0.16180    0.22650   1.00
O2       0.72650    0.22650    0.16180   1.00
C1       0.75000    0.25000    0.35520   1.00
C1       0.75000    0.35520    0.25000   1.00
C1       0.64480    0.25000    0.25000   1.00
C1       0.85520    0.25000    0.25000   1.00
C1       0.75000    0.14480    0.25000   1.00
C1       0.75000    0.25000    0.14480   1.00
O1       0.25000    0.25000    0.25000   1.00
Zn1      0.28280    0.21720    0.21720   1.00
Zn1      0.21720    0.28280    0.21720   1.00
Zn1      0.21720    0.21720    0.28280   1.00
Zn1      0.28280    0.28280    0.28280   1.00
O2       0.27350    0.22650    0.16180   1.00
O2       0.27350    0.16180    0.22650   1.00
O2       0.33820    0.22650    0.22650   1.00
O2       0.22650    0.27350    0.16180   1.00
O2       0.16180    0.27350    0.22650   1.00
O2       0.22650    0.33820    0.22650   1.00
O2       0.22650    0.16180    0.27350   1.00
O2       0.16180    0.22650    0.27350   1.00
O2       0.22650    0.22650    0.33820   1.00
O2       0.33820    0.27350    0.27350   1.00
O2       0.27350    0.33820    0.27350   1.00
O2       0.27350    0.27350    0.33820   1.00
C1       0.25000    0.25000    0.14480   1.00
C1       0.25000    0.14480    0.25000   1.00
C1       0.35520    0.25000    0.25000   1.00
C1       0.14480    0.25000    0.25000   1.00
C1       0.25000    0.35520    0.25000   1.00
C1       0.25000    0.25000    0.35520   1.00
O1       0.75000    0.75000    0.25000   1.00
Zn1      0.78280    0.71720    0.21720   1.00
Zn1      0.71720    0.78280    0.21720   1.00
Zn1      0.71720    0.71720    0.28280   1.00
Zn1      0.78280    0.78280    0.28280   1.00
O2       0.77350    0.72650    0.16180   1.00
O2       0.77350    0.66180    0.22650   1.00
O2       0.83820    0.72650    0.22650   1.00
O2       0.72650    0.77350    0.16180   1.00
O2       0.66180    0.77350    0.22650   1.00
O2       0.72650    0.83820    0.22650   1.00
O2       0.72650    0.66180    0.27350   1.00
O2       0.66180    0.72650    0.27350   1.00
O2       0.72650    0.72650    0.33820   1.00
O2       0.83820    0.77350    0.27350   1.00
O2       0.77350    0.83820    0.27350   1.00
O2       0.77350    0.77350    0.33820   1.00
C1       0.75000    0.75000    0.14480   1.00
C1       0.75000    0.64480    0.25000   1.00
C1       0.85520    0.75000    0.25000   1.00
C1       0.64480    0.75000    0.25000   1.00
C1       0.75000    0.85520    0.25000   1.00
C1       0.75000    0.75000    0.35520   1.00
O1       0.75000    0.25000    0.75000   1.00
Zn1      0.78280    0.21720    0.71720   1.00
Zn1      0.71720    0.28280    0.71720   1.00
Zn1      0.71720    0.21720    0.78280   1.00
Zn1      0.78280    0.28280    0.78280   1.00
O2       0.77350    0.22650    0.66180   1.00
O2       0.77350    0.16180    0.72650   1.00
O2       0.83820    0.22650    0.72650   1.00
O2       0.72650    0.27350    0.66180   1.00
O2       0.66180    0.27350    0.72650   1.00
O2       0.72650    0.33820    0.72650   1.00
O2       0.72650    0.16180    0.77350   1.00
O2       0.66180    0.22650    0.77350   1.00
O2       0.72650    0.22650    0.83820   1.00
O2       0.83820    0.27350    0.77350   1.00
O2       0.77350    0.33820    0.77350   1.00
O2       0.77350    0.27350    0.83820   1.00
C1       0.75000    0.25000    0.64480   1.00
C1       0.75000    0.14480    0.75000   1.00
C1       0.85520    0.25000    0.75000   1.00
C1       0.64480    0.25000    0.75000   1.00
C1       0.75000    0.35520    0.75000   1.00
C1       0.75000    0.25000    0.85520   1.00
O1       0.25000    0.75000    0.75000   1.00
Zn1      0.28280    0.71720    0.71720   1.00
Zn1      0.21720    0.78280    0.71720   1.00
Zn1      0.21720    0.71720    0.78280   1.00
Zn1      0.28280    0.78280    0.78280   1.00
O2       0.27350    0.72650    0.66180   1.00
O2       0.27350    0.66180    0.72650   1.00
O2       0.33820    0.72650    0.72650   1.00
O2       0.22650    0.77350    0.66180   1.00
O2       0.16180    0.77350    0.72650   1.00
O2       0.22650    0.83820    0.72650   1.00
O2       0.22650    0.66180    0.77350   1.00
O2       0.16180    0.72650    0.77350   1.00
O2       0.22650    0.72650    0.83820   1.00
O2       0.33820    0.77350    0.77350   1.00
O2       0.27350    0.83820    0.77350   1.00
O2       0.27350    0.77350    0.83820   1.00
C1       0.25000    0.75000    0.64480   1.00
C1       0.25000    0.64480    0.75000   1.00
C1       0.35520    0.75000    0.75000   1.00
C1       0.14480    0.75000    0.75000   1.00
C1       0.25000    0.85520    0.75000   1.00
C1       0.25000    0.75000    0.85520   1.00
O1       1.00000    1.00000    1.00000   1.00
Zn1      0.96720    1.03280    1.03280   1.00
Zn1      1.03280    0.96720    1.03280   1.00
Zn1      1.03280    1.03280    0.96720   1.00
Zn1      0.96720    0.96720    0.96720   1.00
O2       0.97650    1.02350    1.08820   1.00
O2       0.97650    1.08820    1.02350   1.00
O2       0.91180    1.02350    1.02350   1.00
O2       1.02350    0.97650    1.08820   1.00
O2       1.08820    0.97650    1.02350   1.00
O2       1.02350    0.91180    1.02350   1.00
O2       1.02350    1.08820    0.97650   1.00
O2       1.08820    1.02350    0.97650   1.00
O2       1.02350    1.02350    0.91180   1.00
O2       0.91180    0.97650    0.97650   1.00
O2       0.97650    0.91180    0.97650   1.00
O2       0.97650    0.97650    0.91180   1.00
C1       1.00000    1.00000    1.10520   1.00
C1       1.00000    1.10520    1.00000   1.00
C1       0.89480    1.00000    1.00000   1.00
C1       1.10520    1.00000    1.00000   1.00
C1       1.00000    0.89480    1.00000   1.00
C1       1.00000    1.00000    0.89480   1.00
O1       0.50000    0.50000    1.00000   1.00
Zn1      0.46720    0.53280    1.03280   1.00
Zn1      0.53280    0.46720    1.03280   1.00
Zn1      0.53280    0.53280    0.96720   1.00
Zn1      0.46720    0.46720    0.96720   1.00
O2       0.47650    0.52350    1.08820   1.00
O2       0.47650    0.58820    1.02350   1.00
O2       0.41180    0.52350    1.02350   1.00
O2       0.52350    0.47650    1.08820   1.00
O2       0.58820    0.47650    1.02350   1.00
O2       0.52350    0.41180    1.02350   1.00
O2       0.52350    0.58820    0.97650   1.00
O2       0.58820    0.52350    0.97650   1.00
O2       0.52350    0.52350    0.91180   1.00
O2       0.41180    0.47650    0.97650   1.00
O2       0.47650    0.41180    0.97650   1.00
O2       0.47650    0.47650    0.91180   1.00
C1       0.50000    0.50000    1.10520   1.00
C1       0.50000    0.60520    1.00000   1.00
C1       0.39480    0.50000    1.00000   1.00
C1       0.60520    0.50000    1.00000   1.00
C1       0.50000    0.39480    1.00000   1.00
C1       0.50000    0.50000    0.89480   1.00
O1       0.50000    1.00000    0.50000   1.00
Zn1      0.46720    1.03280    0.53280   1.00
Zn1      0.53280    0.96720    0.53280   1.00
Zn1      0.53280    1.03280    0.46720   1.00
Zn1      0.46720    0.96720    0.46720   1.00
O2       0.47650    1.02350    0.58820   1.00
O2       0.47650    1.08820    0.52350   1.00
O2       0.41180    1.02350    0.52350   1.00
O2       0.52350    0.97650    0.58820   1.00
O2       0.58820    0.97650    0.52350   1.00
O2       0.52350    0.91180    0.52350   1.00
O2       0.52350    1.08820    0.47650   1.00
O2       0.58820    1.02350    0.47650   1.00
O2       0.52350    1.02350    0.41180   1.00
O2       0.41180    0.97650    0.47650   1.00
O2       0.47650    0.91180    0.47650   1.00
O2       0.47650    0.97650    0.41180   1.00
C1       0.50000    1.00000    0.60520   1.00
C1       0.50000    1.10520    0.50000   1.00
C1       0.39480    1.00000    0.50000   1.00
C1       0.60520    1.00000    0.50000   1.00
C1       0.50000    0.89480    0.50000   1.00
C1       0.50000    1.00000    0.39480   1.00
O1       1.00000    0.50000    0.50000   1.00
Zn1      0.96720    0.53280    0.53280   1.00
Zn1      1.03280    0.46720    0.53280   1.00
Zn1      1.03280    0.53280    0.46720   1.00
Zn1      0.96720    0.46720    0.46720   1.00
O2       0.97650    0.52350    0.58820   1.00
O2       0.97650    0.58820    0.52350   1.00
O2       0.91180    0.52350    0.52350   1.00
O2       1.02350    0.47650    0.58820   1.00
O2       1.08820    0.47650    0.52350   1.00
O2       1.02350    0.41180    0.52350   1.00
O2       1.02350    0.58820    0.47650   1.00
O2       1.08820    0.52350    0.47650   1.00
O2       1.02350    0.52350    0.41180   1.00
O2       0.91180    0.47650    0.47650   1.00
O2       0.97650    0.41180    0.47650   1.00
O2       0.97650    0.47650    0.41180   1.00
C1       1.00000    0.50000    0.60520   1.00
C1       1.00000    0.60520    0.50000   1.00
C1       0.89480    0.50000    0.50000   1.00
C1       1.10520    0.50000    0.50000   1.00
C1       1.00000    0.39480    0.50000   1.00
C1       1.00000    0.50000    0.39480   1.00
O1       0.50000    0.50000    0.50000   1.00
Zn1      0.53280    0.46720    0.46720   1.00
Zn1      0.46720    0.53280    0.46720   1.00
Zn1      0.46720    0.46720    0.53280   1.00
Zn1      0.53280    0.53280    0.53280   1.00
O2       0.52350    0.47650    0.41180   1.00
O2       0.52350    0.41180    0.47650   1.00
O2       0.58820    0.47650    0.47650   1.00
O2       0.47650    0.52350    0.41180   1.00
O2       0.41180    0.52350    0.47650   1.00
O2       0.47650    0.58820    0.47650   1.00
O2       0.47650    0.41180    0.52350   1.00
O2       0.41180    0.47650    0.52350   1.00
O2       0.47650    0.47650    0.58820   1.00
O2       0.58820    0.52350    0.52350   1.00
O2       0.52350    0.58820    0.52350   1.00
O2       0.52350    0.52350    0.58820   1.00
C1       0.50000    0.50000    0.39480   1.00
C1       0.50000    0.39480    0.50000   1.00
C1       0.60520    0.50000    0.50000   1.00
C1       0.39480    0.50000    0.50000   1.00
C1       0.50000    0.60520    0.50000   1.00
C1       0.50000    0.50000    0.60520   1.00
O1       1.00000    1.00000    0.50000   1.00
Zn1      1.03280    0.96720    0.46720   1.00
Zn1      0.96720    1.03280    0.46720   1.00
Zn1      0.96720    0.96720    0.53280   1.00
Zn1      1.03280    1.03280    0.53280   1.00
O2       1.02350    0.97650    0.41180   1.00
O2       1.02350    0.91180    0.47650   1.00
O2       1.08820    0.97650    0.47650   1.00
O2       0.97650    1.02350    0.41180   1.00
O2       0.91180    1.02350    0.47650   1.00
O2       0.97650    1.08820    0.47650   1.00
O2       0.97650    0.91180    0.52350   1.00
O2       0.91180    0.97650    0.52350   1.00
O2       0.97650    0.97650    0.58820   1.00
O2       1.08820    1.02350    0.52350   1.00
O2       1.02350    1.08820    0.52350   1.00
O2       1.02350    1.02350    0.58820   1.00
C1       1.00000    1.00000    0.39480   1.00
C1       1.00000    0.89480    0.50000   1.00
C1       1.10520    1.00000    0.50000   1.00
C1       0.89480    1.00000    0.50000   1.00
C1       1.00000    1.10520    0.50000   1.00
C1       1.00000    1.00000    0.60520   1.00
O1       1.00000    0.50000    1.00000   1.00
Zn1      1.03280    0.46720    0.96720   1.00
Zn1      0.96720    0.53280    0.96720   1.00
Zn1      0.96720    0.46720    1.03280   1.00
Zn1      1.03280    0.53280    1.03280   1.00
O2       1.02350    0.47650    0.91180   1.00
O2       1.02350    0.41180    0.97650   1.00
O2       1.08820    0.47650    0.97650   1.00
O2       0.97650    0.52350    0.91180   1.00
O2       0.91180    0.52350    0.97650   1.00
O2       0.97650    0.58820    0.97650   1.00
O2       0.97650    0.41180    1.02350   1.00
O2       0.91180    0.47650    1.02350   1.00
O2       0.97650    0.47650    1.08820   1.00
O2       1.08820    0.52350    1.02350   1.00
O2       1.02350    0.58820    1.02350   1.00
O2       1.02350    0.52350    1.08820   1.00
C1       1.00000    0.50000    0.89480   1.00
C1       1.00000    0.39480    1.00000   1.00
C1       1.10520    0.50000    1.00000   1.00
C1       0.89480    0.50000    1.00000   1.00
C1       1.00000    0.60520    1.00000   1.00
C1       1.00000    0.50000    1.10520   1.00
O1       0.50000    1.00000    1.00000   1.00
Zn1      0.53280    0.96720    0.96720   1.00
Zn1      0.46720    1.03280    0.96720   1.00
Zn1      0.46720    0.96720    1.03280   1.00
Zn1      0.53280    1.03280    1.03280   1.00
O2       0.52350    0.97650    0.91180   1.00
O2       0.52350    0.91180    0.97650   1.00
O2       0.58820    0.97650    0.97650   1.00
O2       0.47650    1.02350    0.91180   1.00
O2       0.41180    1.02350    0.97650   1.00
O2       0.47650    1.08820    0.97650   1.00
O2       0.47650    0.91180    1.02350   1.00
O2       0.41180    0.97650    1.02350   1.00
O2       0.47650    0.97650    1.08820   1.00
O2       0.58820    1.02350    1.02350   1.00
O2       0.52350    1.08820    1.02350   1.00
O2       0.52350    1.02350    1.08820   1.00
C1       0.50000    1.00000    0.89480   1.00
C1       0.50000    0.89480    1.00000   1.00
C1       0.60520    1.00000    1.00000   1.00
C1       0.39480    1.00000    1.00000   1.00
C1       0.50000    1.10520    1.00000   1.00
C1       0.50000    1.00000    1.10520   1.00
C4       0.75076    0.74987    0.97917   1.00
C4       0.74924    0.75013    1.02083   1.00
C3       0.77765    0.72630    0.95846   1.00
C3       0.75369    0.71573    1.04321   1.00
C3       0.72473    0.77254    0.95643   1.00
C3       0.74412    0.78531    1.04187   1.00
C2       0.75238    0.74808    0.89487   1.00
C2       0.74781    0.75166    1.10514   1.00
C3       0.77842    0.72552    0.91715   1.00
C3       0.75291    0.71655    1.08449   1.00
C3       0.72559    0.77162    0.91514   1.00
C3a      0.74333    0.78626    1.08328   1.00
H1       0.79852    0.70860    0.97425   1.00
H1       0.75732    0.68788    1.02875   1.00
H1       0.79947    0.70717    0.90240   1.00
H1       0.75624    0.68955    1.10056   1.00
H1       0.70506    0.78922    0.89882   1.00
C5       0.73802    0.82474    1.10380   1.00
H1       0.74092    0.81253    1.02622   1.00
H1       0.70297    0.79056    0.97059   1.00
H2       0.73729    0.82077    1.13599   1.00
H2       0.76348    0.84366    1.09705   1.00
N1       0.70181    0.84355    1.09125   1.00
C6       0.66547    0.82953    1.09644   1.00
C6       0.69863    0.87814    1.07288   1.00
C6       0.63872    0.85534    1.08102   1.00
C6       0.65982    0.88626    1.06604   1.00
H3       0.65870    0.80204    1.11049   1.00
H3       0.72302    0.89654    1.06484   1.00
H3       0.60735    0.85201    1.08076   1.00
H3       0.64817    0.91188    1.05180   1.00
C4       0.74987    0.97917    0.75076   1.00
C4       0.75013    1.02083    0.74924   1.00
C3       0.72630    0.95846    0.77765   1.00
C3       0.71573    1.04321    0.75369   1.00
C3       0.77254    0.95643    0.72473   1.00
C3       0.78531    1.04187    0.74412   1.00
C2       0.74808    0.89487    0.75238   1.00
C2       0.75166    1.10514    0.74781   1.00
C3       0.72552    0.91715    0.77842   1.00
C3       0.71655    1.08449    0.75291   1.00
C3       0.77162    0.91514    0.72559   1.00
C3a      0.78626    1.08328    0.74333   1.00
H1       0.70860    0.97425    0.79852   1.00
H1       0.68788    1.02875    0.75732   1.00
H1       0.70717    0.90240    0.79947   1.00
H1       0.68955    1.10056    0.75624   1.00
H1       0.78922    0.89882    0.70506   1.00
C5       0.82474    1.10380    0.73802   1.00
H1       0.81253    1.02622    0.74092   1.00
H1       0.79056    0.97059    0.70297   1.00
H2       0.82077    1.13599    0.73729   1.00
H2       0.84366    1.09705    0.76348   1.00
N1       0.84355    1.09125    0.70181   1.00
C6       0.82953    1.09644    0.66547   1.00
C6       0.87814    1.07288    0.69863   1.00
C6       0.85534    1.08102    0.63872   1.00
C6       0.88626    1.06604    0.65982   1.00
H3       0.80204    1.11049    0.65870   1.00
H3       0.89654    1.06484    0.72302   1.00
H3       0.85201    1.08076    0.60735   1.00
H3       0.91188    1.05180    0.64817   1.00
C4       0.52083    0.75076    0.75013   1.00
C4       0.47917    0.74924    0.74987   1.00
C3       0.54154    0.77765    0.77370   1.00
C3       0.45679    0.75369    0.78427   1.00
C3       0.54357    0.72473    0.72746   1.00
C3       0.45813    0.74412    0.71469   1.00
C2       0.60513    0.75238    0.75192   1.00
C2       0.39486    0.74781    0.74834   1.00
C3       0.58285    0.77842    0.77448   1.00
C3       0.41551    0.75291    0.78345   1.00
C3       0.58486    0.72559    0.72838   1.00
C3a      0.41672    0.74333    0.71374   1.00
H1       0.52575    0.79852    0.79140   1.00
H1       0.47125    0.75732    0.81212   1.00
H1       0.59760    0.79947    0.79283   1.00
H1       0.39944    0.75624    0.81045   1.00
H1       0.60118    0.70506    0.71078   1.00
C5       0.39620    0.73802    0.67526   1.00
H1       0.47378    0.74092    0.68747   1.00
H1       0.52941    0.70297    0.70944   1.00
H2       0.36401    0.73729    0.67923   1.00
H2       0.40295    0.76348    0.65634   1.00
N1       0.40875    0.70181    0.65645   1.00
C6       0.40356    0.66547    0.67047   1.00
C6       0.42712    0.69863    0.62186   1.00
C6       0.41898    0.63872    0.64466   1.00
C6       0.43396    0.65982    0.61374   1.00
H3       0.38951    0.65870    0.69796   1.00
H3       0.43516    0.72302    0.60346   1.00
H3       0.41924    0.60735    0.64799   1.00
H3       0.44820    0.64817    0.58812   1.00
C4       0.97917    0.75076    0.74987   1.00
C4       1.02083    0.74924    0.75013   1.00
C3       0.95846    0.77765    0.72630   1.00
C3       1.04321    0.75369    0.71573   1.00
C3       0.95643    0.72473    0.77254   1.00
C3       1.04187    0.74412    0.78531   1.00
C2       0.89487    0.75238    0.74808   1.00
C2       1.10514    0.74781    0.75166   1.00
C3       0.91715    0.77842    0.72552   1.00
C3       1.08449    0.75291    0.71655   1.00
C3       0.91514    0.72559    0.77162   1.00
C3a      1.08328    0.74333    0.78626   1.00
H1       0.97425    0.79852    0.70860   1.00
H1       1.02875    0.75732    0.68788   1.00
H1       0.90240    0.79947    0.70717   1.00
H1       1.10056    0.75624    0.68955   1.00
H1       0.89882    0.70506    0.78922   1.00
C5       1.10380    0.73802    0.82474   1.00
H1       1.02622    0.74092    0.81253   1.00
H1       0.97059    0.70297    0.79056   1.00
H2       1.13599    0.73729    0.82077   1.00
H2       1.09705    0.76348    0.84366   1.00
N1       1.09125    0.70181    0.84355   1.00
C6       1.09644    0.66547    0.82953   1.00
C6       1.07288    0.69863    0.87814   1.00
C6       1.08102    0.63872    0.85534   1.00
C6       1.06604    0.65982    0.88626   1.00
H3       1.11049    0.65870    0.80204   1.00
H3       1.06484    0.72302    0.89654   1.00
H3       1.08076    0.60735    0.85201   1.00
H3       1.05180    0.64817    0.91188   1.00
C4       0.75013    0.52083    0.75076   1.00
C4       0.74987    0.47917    0.74924   1.00
C3       0.77370    0.54154    0.77765   1.00
C3       0.78427    0.45679    0.75369   1.00
C3       0.72746    0.54357    0.72473   1.00
C3       0.71469    0.45813    0.74412   1.00
C2       0.75192    0.60513    0.75238   1.00
C2       0.74834    0.39486    0.74781   1.00
C3       0.77448    0.58285    0.77842   1.00
C3       0.78345    0.41551    0.75291   1.00
C3       0.72838    0.58486    0.72559   1.00
C3a      0.71374    0.41672    0.74333   1.00
H1       0.79140    0.52575    0.79852   1.00
H1       0.81212    0.47125    0.75732   1.00
H1       0.79283    0.59760    0.79947   1.00
H1       0.81045    0.39944    0.75624   1.00
H1       0.71078    0.60118    0.70506   1.00
C5       0.67526    0.39620    0.73802   1.00
H1       0.68747    0.47378    0.74092   1.00
H1       0.70944    0.52941    0.70297   1.00
H2       0.67923    0.36401    0.73729   1.00
H2       0.65634    0.40295    0.76348   1.00
N1       0.65645    0.40875    0.70181   1.00
C6       0.67047    0.40356    0.66547   1.00
C6       0.62186    0.42712    0.69863   1.00
C6       0.64466    0.41898    0.63872   1.00
C6       0.61374    0.43396    0.65982   1.00
H3       0.69796    0.38951    0.65870   1.00
H3       0.60346    0.43516    0.72302   1.00
H3       0.64799    0.41924    0.60735   1.00
H3       0.58812    0.44820    0.64817   1.00
C4       0.75076    0.75013    0.52083   1.00
C4       0.74924    0.74987    0.47917   1.00
C3       0.77765    0.77370    0.54154   1.00
C3       0.75369    0.78427    0.45679   1.00
C3       0.72473    0.72746    0.54357   1.00
C3       0.74412    0.71469    0.45813   1.00
C2       0.75238    0.75192    0.60513   1.00
C2       0.74781    0.74834    0.39486   1.00
C3       0.77842    0.77448    0.58285   1.00
C3       0.75291    0.78345    0.41551   1.00
C3       0.72559    0.72838    0.58486   1.00
C3a      0.74333    0.71374    0.41672   1.00
H1       0.79852    0.79140    0.52575   1.00
H1       0.75732    0.81212    0.47125   1.00
H1       0.79947    0.79283    0.59760   1.00
H1       0.75624    0.81045    0.39944   1.00
H1       0.70506    0.71078    0.60118   1.00
C5       0.73802    0.67526    0.39620   1.00
H1       0.74092    0.68747    0.47378   1.00
H1       0.70297    0.70944    0.52941   1.00
H2       0.73729    0.67923    0.36401   1.00
H2       0.76348    0.65634    0.40295   1.00
N1       0.70181    0.65645    0.40875   1.00
C6       0.66547    0.67047    0.40356   1.00
C6       0.69863    0.62186    0.42712   1.00
C6       0.63872    0.64466    0.41898   1.00
C6       0.65982    0.61374    0.43396   1.00
H3       0.65870    0.69796    0.38951   1.00
H3       0.72302    0.60346    0.43516   1.00
H3       0.60735    0.64799    0.41924   1.00
H3       0.64817    0.58812    0.44820   1.00
C4       0.25076    0.24987    0.97917   1.00
C4       0.24924    0.25013    1.02083   1.00
C3       0.27765    0.22630    0.95846   1.00
C3       0.25369    0.21573    1.04321   1.00
C3       0.22473    0.27254    0.95643   1.00
C3       0.24412    0.28531    1.04187   1.00
C2       0.25238    0.24808    0.89487   1.00
C2       0.24781    0.25166    1.10514   1.00
C3       0.27842    0.22552    0.91715   1.00
C3       0.25291    0.21655    1.08449   1.00
C3       0.22559    0.27162    0.91514   1.00
C3a      0.24333    0.28626    1.08328   1.00
H1       0.29852    0.20860    0.97425   1.00
H1       0.25732    0.18788    1.02875   1.00
H1       0.29947    0.20717    0.90240   1.00
H1       0.25624    0.18955    1.10056   1.00
H1       0.20506    0.28922    0.89882   1.00
C5       0.23802    0.32474    1.10380   1.00
H1       0.24092    0.31253    1.02622   1.00
H1       0.20297    0.29056    0.97059   1.00
H2       0.23729    0.32077    1.13599   1.00
H2       0.26348    0.34366    1.09705   1.00
N1       0.20181    0.34355    1.09125   1.00
C6       0.16547    0.32953    1.09644   1.00
C6       0.19863    0.37814    1.07288   1.00
C6       0.13872    0.35534    1.08102   1.00
C6       0.15982    0.38626    1.06604   1.00
H3       0.15870    0.30204    1.11049   1.00
H3       0.22302    0.39654    1.06484   1.00
H3       0.10735    0.35201    1.08076   1.00
H3       0.14817    0.41188    1.05180   1.00
C4       0.24987    0.47917    0.75076   1.00
C4       0.25013    0.52083    0.74924   1.00
C3       0.22630    0.45846    0.77765   1.00
C3       0.21573    0.54321    0.75369   1.00
C3       0.27254    0.45643    0.72473   1.00
C3       0.28531    0.54187    0.74412   1.00
C2       0.24808    0.39487    0.75238   1.00
C2       0.25166    0.60514    0.74781   1.00
C3       0.22552    0.41715    0.77842   1.00
C3       0.21655    0.58449    0.75291   1.00
C3       0.27162    0.41514    0.72559   1.00
C3a      0.28626    0.58328    0.74333   1.00
H1       0.20860    0.47425    0.79852   1.00
H1       0.18788    0.52875    0.75732   1.00
H1       0.20717    0.40240    0.79947   1.00
H1       0.18955    0.60056    0.75624   1.00
H1       0.28922    0.39882    0.70506   1.00
C5       0.32474    0.60380    0.73802   1.00
H1       0.31253    0.52622    0.74092   1.00
H1       0.29056    0.47059    0.70297   1.00
H2       0.32077    0.63599    0.73729   1.00
H2       0.34366    0.59705    0.76348   1.00
N1       0.34355    0.59125    0.70181   1.00
C6       0.32953    0.59644    0.66547   1.00
C6       0.37814    0.57288    0.69863   1.00
C6       0.35534    0.58102    0.63872   1.00
C6       0.38626    0.56604    0.65982   1.00
H3       0.30204    0.61049    0.65870   1.00
H3       0.39654    0.56484    0.72302   1.00
H3       0.35201    0.58076    0.60735   1.00
H3       0.41188    0.55180    0.64817   1.00
C4       0.02083    0.25076    0.75013   1.00
C4       -0.02083   0.24924    0.74987   1.00
C3       0.04154    0.27765    0.77370   1.00
C3       -0.04321   0.25369    0.78427   1.00
C3       0.04357    0.22473    0.72746   1.00
C3       -0.04187   0.24412    0.71469   1.00
C2       0.10513    0.25238    0.75192   1.00
C2       -0.10514   0.24781    0.74834   1.00
C3       0.08285    0.27842    0.77448   1.00
C3       -0.08449   0.25291    0.78345   1.00
C3       0.08486    0.22559    0.72838   1.00
C3a      -0.08328   0.24333    0.71374   1.00
H1       0.02575    0.29852    0.79140   1.00
H1       -0.02875   0.25732    0.81212   1.00
H1       0.09760    0.29947    0.79283   1.00
H1       -0.10056   0.25624    0.81045   1.00
H1       0.10118    0.20506    0.71078   1.00
C5       -0.10380   0.23802    0.67526   1.00
H1       -0.02622   0.24092    0.68747   1.00
H1       0.02941    0.20297    0.70944   1.00
H2       -0.13599   0.23729    0.67923   1.00
H2       -0.09705   0.26348    0.65634   1.00
N1       -0.09125   0.20181    0.65645   1.00
C6       -0.09644   0.16547    0.67047   1.00
C6       -0.07288   0.19863    0.62186   1.00
C6       -0.08102   0.13872    0.64466   1.00
C6       -0.06604   0.15982    0.61374   1.00
H3       -0.11049   0.15870    0.69796   1.00
H3       -0.06484   0.22302    0.60346   1.00
H3       -0.08076   0.10735    0.64799   1.00
H3       -0.05180   0.14817    0.58812   1.00
C4       0.47917    0.25076    0.74987   1.00
C4       0.52083    0.24924    0.75013   1.00
C3       0.45846    0.27765    0.72630   1.00
C3       0.54321    0.25369    0.71573   1.00
C3       0.45643    0.22473    0.77254   1.00
C3       0.54187    0.24412    0.78531   1.00
C2       0.39487    0.25238    0.74808   1.00
C2       0.60514    0.24781    0.75166   1.00
C3       0.41715    0.27842    0.72552   1.00
C3       0.58449    0.25291    0.71655   1.00
C3       0.41514    0.22559    0.77162   1.00
C3a      0.58328    0.24333    0.78626   1.00
H1       0.47425    0.29852    0.70860   1.00
H1       0.52875    0.25732    0.68788   1.00
H1       0.40240    0.29947    0.70717   1.00
H1       0.60056    0.25624    0.68955   1.00
H1       0.39882    0.20506    0.78922   1.00
C5       0.60380    0.23802    0.82474   1.00
H1       0.52622    0.24092    0.81253   1.00
H1       0.47059    0.20297    0.79056   1.00
H2       0.63599    0.23729    0.82077   1.00
H2       0.59705    0.26348    0.84366   1.00
N1       0.59125    0.20181    0.84355   1.00
C6       0.59644    0.16547    0.82953   1.00
C6       0.57288    0.19863    0.87814   1.00
C6       0.58102    0.13872    0.85534   1.00
C6       0.56604    0.15982    0.88626   1.00
H3       0.61049    0.15870    0.80204   1.00
H3       0.56484    0.22302    0.89654   1.00
H3       0.58076    0.10735    0.85201   1.00
H3       0.55180    0.14817    0.91188   1.00
C4       0.25013    0.02083    0.75076   1.00
C4       0.24987    -0.02083   0.74924   1.00
C3       0.27370    0.04154    0.77765   1.00
C3       0.28427    -0.04321   0.75369   1.00
C3       0.22746    0.04357    0.72473   1.00
C3       0.21469    -0.04187   0.74412   1.00
C2       0.25192    0.10513    0.75238   1.00
C2       0.24834    -0.10514   0.74781   1.00
C3       0.27448    0.08285    0.77842   1.00
C3       0.28345    -0.08449   0.75291   1.00
C3       0.22838    0.08486    0.72559   1.00
C3a      0.21374    -0.08328   0.74333   1.00
H1       0.29140    0.02575    0.79852   1.00
H1       0.31212    -0.02875   0.75732   1.00
H1       0.29283    0.09760    0.79947   1.00
H1       0.31045    -0.10056   0.75624   1.00
H1       0.21078    0.10118    0.70506   1.00
C5       0.17526    -0.10380   0.73802   1.00
H1       0.18747    -0.02622   0.74092   1.00
H1       0.20944    0.02941    0.70297   1.00
H2       0.17923    -0.13599   0.73729   1.00
H2       0.15634    -0.09705   0.76348   1.00
N1       0.15645    -0.09125   0.70181   1.00
C6       0.17047    -0.09644   0.66547   1.00
C6       0.12186    -0.07288   0.69863   1.00
C6       0.14466    -0.08102   0.63872   1.00
C6       0.11374    -0.06604   0.65982   1.00
H3       0.19796    -0.11049   0.65870   1.00
H3       0.10346    -0.06484   0.72302   1.00
H3       0.14799    -0.08076   0.60735   1.00
H3       0.08812    -0.05180   0.64817   1.00
C4       0.25076    0.25013    0.52083   1.00
C4       0.24924    0.24987    0.47917   1.00
C3       0.27765    0.27370    0.54154   1.00
C3       0.25369    0.28427    0.45679   1.00
C3       0.22473    0.22746    0.54357   1.00
C3       0.24412    0.21469    0.45813   1.00
C2       0.25238    0.25192    0.60513   1.00
C2       0.24781    0.24834    0.39486   1.00
C3       0.27842    0.27448    0.58285   1.00
C3       0.25291    0.28345    0.41551   1.00
C3       0.22559    0.22838    0.58486   1.00
C3a      0.24333    0.21374    0.41672   1.00
H1       0.29852    0.29140    0.52575   1.00
H1       0.25732    0.31212    0.47125   1.00
H1       0.29947    0.29283    0.59760   1.00
H1       0.25624    0.31045    0.39944   1.00
H1       0.20506    0.21078    0.60118   1.00
C5       0.23802    0.17526    0.39620   1.00
H1       0.24092    0.18747    0.47378   1.00
H1       0.20297    0.20944    0.52941   1.00
H2       0.23729    0.17923    0.36401   1.00
H2       0.26348    0.15634    0.40295   1.00
N1       0.20181    0.15645    0.40875   1.00
C6       0.16547    0.17047    0.40356   1.00
C6       0.19863    0.12186    0.42712   1.00
C6       0.13872    0.14466    0.41898   1.00
C6       0.15982    0.11374    0.43396   1.00
H3       0.15870    0.19796    0.38951   1.00
H3       0.22302    0.10346    0.43516   1.00
H3       0.10735    0.14799    0.41924   1.00
H3       0.14817    0.08812    0.44820   1.00
C4       0.25076    0.74987    0.47917   1.00
C4       0.24924    0.75013    0.52083   1.00
C3       0.27765    0.72630    0.45846   1.00
C3       0.25369    0.71573    0.54321   1.00
C3       0.22473    0.77254    0.45643   1.00
C3       0.24412    0.78531    0.54187   1.00
C2       0.25238    0.74808    0.39487   1.00
C2       0.24781    0.75166    0.60514   1.00
C3       0.27842    0.72552    0.41715   1.00
C3       0.25291    0.71655    0.58449   1.00
C3       0.22559    0.77162    0.41514   1.00
C3a      0.24333    0.78626    0.58328   1.00
H1       0.29852    0.70860    0.47425   1.00
H1       0.25732    0.68788    0.52875   1.00
H1       0.29947    0.70717    0.40240   1.00
H1       0.25624    0.68955    0.60056   1.00
H1       0.20506    0.78922    0.39882   1.00
C5       0.23802    0.82474    0.60380   1.00
H1       0.24092    0.81253    0.52622   1.00
H1       0.20297    0.79056    0.47059   1.00
H2       0.23729    0.82077    0.63599   1.00
H2       0.26348    0.84366    0.59705   1.00
N1       0.20181    0.84355    0.59125   1.00
C6       0.16547    0.82953    0.59644   1.00
C6       0.19863    0.87814    0.57288   1.00
C6       0.13872    0.85534    0.58102   1.00
C6       0.15982    0.88626    0.56604   1.00
H3       0.15870    0.80204    0.61049   1.00
H3       0.22302    0.89654    0.56484   1.00
H3       0.10735    0.85201    0.58076   1.00
H3       0.14817    0.91188    0.55180   1.00
C4       0.24987    0.97917    0.25076   1.00
C4       0.25013    1.02083    0.24924   1.00
C3       0.22630    0.95846    0.27765   1.00
C3       0.21573    1.04321    0.25369   1.00
C3       0.27254    0.95643    0.22473   1.00
C3       0.28531    1.04187    0.24412   1.00
C2       0.24808    0.89487    0.25238   1.00
C2       0.25166    1.10514    0.24781   1.00
C3       0.22552    0.91715    0.27842   1.00
C3       0.21655    1.08449    0.25291   1.00
C3       0.27162    0.91514    0.22559   1.00
C3a      0.28626    1.08328    0.24333   1.00
H1       0.20860    0.97425    0.29852   1.00
H1       0.18788    1.02875    0.25732   1.00
H1       0.20717    0.90240    0.29947   1.00
H1       0.18955    1.10056    0.25624   1.00
H1       0.28922    0.89882    0.20506   1.00
C5       0.32474    1.10380    0.23802   1.00
H1       0.31253    1.02622    0.24092   1.00
H1       0.29056    0.97059    0.20297   1.00
H2       0.32077    1.13599    0.23729   1.00
H2       0.34366    1.09705    0.26348   1.00
N1       0.34355    1.09125    0.20181   1.00
C6       0.32953    1.09644    0.16547   1.00
C6       0.37814    1.07288    0.19863   1.00
C6       0.35534    1.08102    0.13872   1.00
C6       0.38626    1.06604    0.15982   1.00
H3       0.30204    1.11049    0.15870   1.00
H3       0.39654    1.06484    0.22302   1.00
H3       0.35201    1.08076    0.10735   1.00
H3       0.41188    1.05180    0.14817   1.00
C4       0.02083    0.75076    0.25013   1.00
C4       -0.02083   0.74924    0.24987   1.00
C3       0.04154    0.77765    0.27370   1.00
C3       -0.04321   0.75369    0.28427   1.00
C3       0.04357    0.72473    0.22746   1.00
C3       -0.04187   0.74412    0.21469   1.00
C2       0.10513    0.75238    0.25192   1.00
C2       -0.10514   0.74781    0.24834   1.00
C3       0.08285    0.77842    0.27448   1.00
C3       -0.08449   0.75291    0.28345   1.00
C3       0.08486    0.72559    0.22838   1.00
C3a      -0.08328   0.74333    0.21374   1.00
H1       0.02575    0.79852    0.29140   1.00
H1       -0.02875   0.75732    0.31212   1.00
H1       0.09760    0.79947    0.29283   1.00
H1       -0.10056   0.75624    0.31045   1.00
H1       0.10118    0.70506    0.21078   1.00
C5       -0.10380   0.73802    0.17526   1.00
H1       -0.02622   0.74092    0.18747   1.00
H1       0.02941    0.70297    0.20944   1.00
H2       -0.13599   0.73729    0.17923   1.00
H2       -0.09705   0.76348    0.15634   1.00
N1       -0.09125   0.70181    0.15645   1.00
C6       -0.09644   0.66547    0.17047   1.00
C6       -0.07288   0.69863    0.12186   1.00
C6       -0.08102   0.63872    0.14466   1.00
C6       -0.06604   0.65982    0.11374   1.00
H3       -0.11049   0.65870    0.19796   1.00
H3       -0.06484   0.72302    0.10346   1.00
H3       -0.08076   0.60735    0.14799   1.00
H3       -0.05180   0.64817    0.08812   1.00
C4       0.47917    0.75076    0.24987   1.00
C4       0.52083    0.74924    0.25013   1.00
C3       0.45846    0.77765    0.22630   1.00
C3       0.54321    0.75369    0.21573   1.00
C3       0.45643    0.72473    0.27254   1.00
C3       0.54187    0.74412    0.28531   1.00
C2       0.39487    0.75238    0.24808   1.00
C2       0.60514    0.74781    0.25166   1.00
C3       0.41715    0.77842    0.22552   1.00
C3       0.58449    0.75291    0.21655   1.00
C3       0.41514    0.72559    0.27162   1.00
C3a      0.58328    0.74333    0.28626   1.00
H1       0.47425    0.79852    0.20860   1.00
H1       0.52875    0.75732    0.18788   1.00
H1       0.40240    0.79947    0.20717   1.00
H1       0.60056    0.75624    0.18955   1.00
H1       0.39882    0.70506    0.28922   1.00
C5       0.60380    0.73802    0.32474   1.00
H1       0.52622    0.74092    0.31253   1.00
H1       0.47059    0.70297    0.29056   1.00
H2       0.63599    0.73729    0.32077   1.00
H2       0.59705    0.76348    0.34366   1.00
N1       0.59125    0.70181    0.34355   1.00
C6       0.59644    0.66547    0.32953   1.00
C6       0.57288    0.69863    0.37814   1.00
C6       0.58102    0.63872    0.35534   1.00
C6       0.56604    0.65982    0.38626   1.00
H3       0.61049    0.65870    0.30204   1.00
H3       0.56484    0.72302    0.39654   1.00
H3       0.58076    0.60735    0.35201   1.00
H3       0.55180    0.64817    0.41188   1.00
C4       0.25013    0.52083    0.25076   1.00
C4       0.24987    0.47917    0.24924   1.00
C3       0.27370    0.54154    0.27765   1.00
C3       0.28427    0.45679    0.25369   1.00
C3       0.22746    0.54357    0.22473   1.00
C3       0.21469    0.45813    0.24412   1.00
C2       0.25192    0.60513    0.25238   1.00
C2       0.24834    0.39486    0.24781   1.00
C3       0.27448    0.58285    0.27842   1.00
C3       0.28345    0.41551    0.25291   1.00
C3       0.22838    0.58486    0.22559   1.00
C3a      0.21374    0.41672    0.24333   1.00
H1       0.29140    0.52575    0.29852   1.00
H1       0.31212    0.47125    0.25732   1.00
H1       0.29283    0.59760    0.29947   1.00
H1       0.31045    0.39944    0.25624   1.00
H1       0.21078    0.60118    0.20506   1.00
C5       0.17526    0.39620    0.23802   1.00
H1       0.18747    0.47378    0.24092   1.00
H1       0.20944    0.52941    0.20297   1.00
H2       0.17923    0.36401    0.23729   1.00
H2       0.15634    0.40295    0.26348   1.00
N1       0.15645    0.40875    0.20181   1.00
C6       0.17047    0.40356    0.16547   1.00
C6       0.12186    0.42712    0.19863   1.00
C6       0.14466    0.41898    0.13872   1.00
C6       0.11374    0.43396    0.15982   1.00
H3       0.19796    0.38951    0.15870   1.00
H3       0.10346    0.43516    0.22302   1.00
H3       0.14799    0.41924    0.10735   1.00
H3       0.08812    0.44820    0.14817   1.00
C4       0.25076    0.75013    0.02083   1.00
C4       0.24924    0.74987    -0.02083   1.00
C3       0.27765    0.77370    0.04154   1.00
C3       0.25369    0.78427    -0.04321   1.00
C3       0.22473    0.72746    0.04357   1.00
C3       0.24412    0.71469    -0.04187   1.00
C2       0.25238    0.75192    0.10513   1.00
C2       0.24781    0.74834    -0.10514   1.00
C3       0.27842    0.77448    0.08285   1.00
C3       0.25291    0.78345    -0.08449   1.00
C3       0.22559    0.72838    0.08486   1.00
C3a      0.24333    0.71374    -0.08328   1.00
H1       0.29852    0.79140    0.02575   1.00
H1       0.25732    0.81212    -0.02875   1.00
H1       0.29947    0.79283    0.09760   1.00
H1       0.25624    0.81045    -0.10056   1.00
H1       0.20506    0.71078    0.10118   1.00
C5       0.23802    0.67526    -0.10380   1.00
H1       0.24092    0.68747    -0.02622   1.00
H1       0.20297    0.70944    0.02941   1.00
H2       0.23729    0.67923    -0.13599   1.00
H2       0.26348    0.65634    -0.09705   1.00
N1       0.20181    0.65645    -0.09125   1.00
C6       0.16547    0.67047    -0.09644   1.00
C6       0.19863    0.62186    -0.07288   1.00
C6       0.13872    0.64466    -0.08102   1.00
C6       0.15982    0.61374    -0.06604   1.00
H3       0.15870    0.69796    -0.11049   1.00
H3       0.22302    0.60346    -0.06484   1.00
H3       0.10735    0.64799    -0.08076   1.00
H3       0.14817    0.58812    -0.05180   1.00
C4       0.75076    0.24987    0.47917   1.00
C4       0.74924    0.25013    0.52083   1.00
C3       0.77765    0.22630    0.45846   1.00
C3       0.75369    0.21573    0.54321   1.00
C3       0.72473    0.27254    0.45643   1.00
C3       0.74412    0.28531    0.54187   1.00
C2       0.75238    0.24808    0.39487   1.00
C2       0.74781    0.25166    0.60514   1.00
C3       0.77842    0.22552    0.41715   1.00
C3       0.75291    0.21655    0.58449   1.00
C3       0.72559    0.27162    0.41514   1.00
C3a      0.74333    0.28626    0.58328   1.00
H1       0.79852    0.20860    0.47425   1.00
H1       0.75732    0.18788    0.52875   1.00
H1       0.79947    0.20717    0.40240   1.00
H1       0.75624    0.18955    0.60056   1.00
H1       0.70506    0.28922    0.39882   1.00
C5       0.73802    0.32474    0.60380   1.00
H1       0.74092    0.31253    0.52622   1.00
H1       0.70297    0.29056    0.47059   1.00
H2       0.73729    0.32077    0.63599   1.00
H2       0.76348    0.34366    0.59705   1.00
N1       0.70181    0.34355    0.59125   1.00
C6       0.66547    0.32953    0.59644   1.00
C6       0.69863    0.37814    0.57288   1.00
C6       0.63872    0.35534    0.58102   1.00
C6       0.65982    0.38626    0.56604   1.00
H3       0.65870    0.30204    0.61049   1.00
H3       0.72302    0.39654    0.56484   1.00
H3       0.60735    0.35201    0.58076   1.00
H3       0.64817    0.41188    0.55180   1.00
C4       0.74987    0.47917    0.25076   1.00
C4       0.75013    0.52083    0.24924   1.00
C3       0.72630    0.45846    0.27765   1.00
C3       0.71573    0.54321    0.25369   1.00
C3       0.77254    0.45643    0.22473   1.00
C3       0.78531    0.54187    0.24412   1.00
C2       0.74808    0.39487    0.25238   1.00
C2       0.75166    0.60514    0.24781   1.00
C3       0.72552    0.41715    0.27842   1.00
C3       0.71655    0.58449    0.25291   1.00
C3       0.77162    0.41514    0.22559   1.00
C3a      0.78626    0.58328    0.24333   1.00
H1       0.70860    0.47425    0.29852   1.00
H1       0.68788    0.52875    0.25732   1.00
H1       0.70717    0.40240    0.29947   1.00
H1       0.68955    0.60056    0.25624   1.00
H1       0.78922    0.39882    0.20506   1.00
C5       0.82474    0.60380    0.23802   1.00
H1       0.81253    0.52622    0.24092   1.00
H1       0.79056    0.47059    0.20297   1.00
H2       0.82077    0.63599    0.23729   1.00
H2       0.84366    0.59705    0.26348   1.00
N1       0.84355    0.59125    0.20181   1.00
C6       0.82953    0.59644    0.16547   1.00
C6       0.87814    0.57288    0.19863   1.00
C6       0.85534    0.58102    0.13872   1.00
C6       0.88626    0.56604    0.15982   1.00
H3       0.80204    0.61049    0.15870   1.00
H3       0.89654    0.56484    0.22302   1.00
H3       0.85201    0.58076    0.10735   1.00
H3       0.91188    0.55180    0.14817   1.00
C4       0.52083    0.25076    0.25013   1.00
C4       0.47917    0.24924    0.24987   1.00
C3       0.54154    0.27765    0.27370   1.00
C3       0.45679    0.25369    0.28427   1.00
C3       0.54357    0.22473    0.22746   1.00
C3       0.45813    0.24412    0.21469   1.00
C2       0.60513    0.25238    0.25192   1.00
C2       0.39486    0.24781    0.24834   1.00
C3       0.58285    0.27842    0.27448   1.00
C3       0.41551    0.25291    0.28345   1.00
C3       0.58486    0.22559    0.22838   1.00
C3a      0.41672    0.24333    0.21374   1.00
H1       0.52575    0.29852    0.29140   1.00
H1       0.47125    0.25732    0.31212   1.00
H1       0.59760    0.29947    0.29283   1.00
H1       0.39944    0.25624    0.31045   1.00
H1       0.60118    0.20506    0.21078   1.00
C5       0.39620    0.23802    0.17526   1.00
H1       0.47378    0.24092    0.18747   1.00
H1       0.52941    0.20297    0.20944   1.00
H2       0.36401    0.23729    0.17923   1.00
H2       0.40295    0.26348    0.15634   1.00
N1       0.40875    0.20181    0.15645   1.00
C6       0.40356    0.16547    0.17047   1.00
C6       0.42712    0.19863    0.12186   1.00
C6       0.41898    0.13872    0.14466   1.00
C6       0.43396    0.15982    0.11374   1.00
H3       0.38951    0.15870    0.19796   1.00
H3       0.43516    0.22302    0.10346   1.00
H3       0.41924    0.10735    0.14799   1.00
H3       0.44820    0.14817    0.08812   1.00
C4       0.97917    0.25076    0.24987   1.00
C4       1.02083    0.24924    0.25013   1.00
C3       0.95846    0.27765    0.22630   1.00
C3       1.04321    0.25369    0.21573   1.00
C3       0.95643    0.22473    0.27254   1.00
C3       1.04187    0.24412    0.28531   1.00
C2       0.89487    0.25238    0.24808   1.00
C2       1.10514    0.24781    0.25166   1.00
C3       0.91715    0.27842    0.22552   1.00
C3       1.08449    0.25291    0.21655   1.00
C3       0.91514    0.22559    0.27162   1.00
C3a      1.08328    0.24333    0.28626   1.00
H1       0.97425    0.29852    0.20860   1.00
H1       1.02875    0.25732    0.18788   1.00
H1       0.90240    0.29947    0.20717   1.00
H1       1.10056    0.25624    0.18955   1.00
H1       0.89882    0.20506    0.28922   1.00
C5       1.10380    0.23802    0.32474   1.00
H1       1.02622    0.24092    0.31253   1.00
H1       0.97059    0.20297    0.29056   1.00
H2       1.13599    0.23729    0.32077   1.00
H2       1.09705    0.26348    0.34366   1.00
N1       1.09125    0.20181    0.34355   1.00
C6       1.09644    0.16547    0.32953   1.00
C6       1.07288    0.19863    0.37814   1.00
C6       1.08102    0.13872    0.35534   1.00
C6       1.06604    0.15982    0.38626   1.00
H3       1.11049    0.15870    0.30204   1.00
H3       1.06484    0.22302    0.39654   1.00
H3       1.08076    0.10735    0.35201   1.00
H3       1.05180    0.14817    0.41188   1.00
C4       0.75013    0.02083    0.25076   1.00
C4       0.74987    -0.02083   0.24924   1.00
C3       0.77370    0.04154    0.27765   1.00
C3       0.78427    -0.04321   0.25369   1.00
C3       0.72746    0.04357    0.22473   1.00
C3       0.71469    -0.04187   0.24412   1.00
C2       0.75192    0.10513    0.25238   1.00
C2       0.74834    -0.10514   0.24781   1.00
C3       0.77448    0.08285    0.27842   1.00
C3       0.78345    -0.08449   0.25291   1.00
C3       0.72838    0.08486    0.22559   1.00
C3a      0.71374    -0.08328   0.24333   1.00
H1       0.79140    0.02575    0.29852   1.00
H1       0.81212    -0.02875   0.25732   1.00
H1       0.79283    0.09760    0.29947   1.00
H1       0.81045    -0.10056   0.25624   1.00
H1       0.71078    0.10118    0.20506   1.00
C5       0.67526    -0.10380   0.23802   1.00
H1       0.68747    -0.02622   0.24092   1.00
H1       0.70944    0.02941    0.20297   1.00
H2       0.67923    -0.13599   0.23729   1.00
H2       0.65634    -0.09705   0.26348   1.00
N1       0.65645    -0.09125   0.20181   1.00
C6       0.67047    -0.09644   0.16547   1.00
C6       0.62186    -0.07288   0.19863   1.00
C6       0.64466    -0.08102   0.13872   1.00
C6       0.61374    -0.06604   0.15982   1.00
H3       0.69796    -0.11049   0.15870   1.00
H3       0.60346    -0.06484   0.22302   1.00
H3       0.64799    -0.08076   0.10735   1.00
H3       0.58812    -0.05180   0.14817   1.00
C4       0.75076    0.25013    0.02083   1.00
C4       0.74924    0.24987    -0.02083   1.00
C3       0.77765    0.27370    0.04154   1.00
C3       0.75369    0.28427    -0.04321   1.00
C3       0.72473    0.22746    0.04357   1.00
C3       0.74412    0.21469    -0.04187   1.00
C2       0.75238    0.25192    0.10513   1.00
C2       0.74781    0.24834    -0.10514   1.00
C3       0.77842    0.27448    0.08285   1.00
C3       0.75291    0.28345    -0.08449   1.00
C3       0.72559    0.22838    0.08486   1.00
C3a      0.74333    0.21374    -0.08328   1.00
H1       0.79852    0.29140    0.02575   1.00
H1       0.75732    0.31212    -0.02875   1.00
H1       0.79947    0.29283    0.09760   1.00
H1       0.75624    0.31045    -0.10056   1.00
H1       0.70506    0.21078    0.10118   1.00
C5       0.73802    0.17526    -0.10380   1.00
H1       0.74092    0.18747    -0.02622   1.00
H1       0.70297    0.20944    0.02941   1.00
H2       0.73729    0.17923    -0.13599   1.00
H2       0.76348    0.15634    -0.09705   1.00
N1       0.70181    0.15645    -0.09125   1.00
C6       0.66547    0.17047    -0.09644   1.00
C6       0.69863    0.12186    -0.07288   1.00
C6       0.63872    0.14466    -0.08102   1.00
C6       0.65982    0.11374    -0.06604   1.00
H3       0.65870    0.19796    -0.11049   1.00
H3       0.72302    0.10346    -0.06484   1.00
H3       0.60735    0.14799    -0.08076   1.00
H3       0.64817    0.08812    -0.05180   1.00
C4       1.00076    0.99987    1.22917   1.00
C4       0.99924    1.00013    1.27083   1.00
C3       1.02765    0.97630    1.20846   1.00
C3       1.00369    0.96573    1.29321   1.00
C3       0.97473    1.02254    1.20643   1.00
C3       0.99412    1.03531    1.29187   1.00
C2       1.00238    0.99808    1.14487   1.00
C2       0.99781    1.00166    1.35514   1.00
C3       1.02842    0.97552    1.16715   1.00
C3       1.00291    0.96655    1.33449   1.00
C3       0.97559    1.02162    1.16514   1.00
C3a      0.99333    1.03626    1.33328   1.00
H1       1.04852    0.95860    1.22425   1.00
H1       1.00732    0.93788    1.27875   1.00
H1       1.04947    0.95717    1.15240   1.00
H1       1.00624    0.93955    1.35056   1.00
H1       0.95506    1.03922    1.14882   1.00
C5       0.98802    1.07474    1.35380   1.00
H1       0.99092    1.06253    1.27622   1.00
H1       0.95297    1.04056    1.22059   1.00
H2       0.98729    1.07077    1.38599   1.00
H2       1.01348    1.09366    1.34705   1.00
N1       0.95181    1.09355    1.34125   1.00
C6       0.91547    1.07953    1.34644   1.00
C6       0.94863    1.12814    1.32288   1.00
C6       0.88872    1.10534    1.33102   1.00
C6       0.90982    1.13626    1.31604   1.00
H3       0.90870    1.05204    1.36049   1.00
H3       0.97302    1.14654    1.31484   1.00
H3       0.85735    1.10201    1.33076   1.00
H3       0.89817    1.16188    1.30180   1.00
C4       0.99987    1.22917    1.00076   1.00
C4       1.00013    1.27083    0.99924   1.00
C3       0.97630    1.20846    1.02765   1.00
C3       0.96573    1.29321    1.00369   1.00
C3       1.02254    1.20643    0.97473   1.00
C3       1.03531    1.29187    0.99412   1.00
C2       0.99808    1.14487    1.00238   1.00
C2       1.00166    1.35514    0.99781   1.00
C3       0.97552    1.16715    1.02842   1.00
C3       0.96655    1.33449    1.00291   1.00
C3       1.02162    1.16514    0.97559   1.00
C3a      1.03626    1.33328    0.99333   1.00
H1       0.95860    1.22425    1.04852   1.00
H1       0.93788    1.27875    1.00732   1.00
H1       0.95717    1.15240    1.04947   1.00
H1       0.93955    1.35056    1.00624   1.00
H1       1.03922    1.14882    0.95506   1.00
C5       1.07474    1.35380    0.98802   1.00
H1       1.06253    1.27622    0.99092   1.00
H1       1.04056    1.22059    0.95297   1.00
H2       1.07077    1.38599    0.98729   1.00
H2       1.09366    1.34705    1.01348   1.00
N1       1.09355    1.34125    0.95181   1.00
C6       1.07953    1.34644    0.91547   1.00
C6       1.12814    1.32288    0.94863   1.00
C6       1.10534    1.33102    0.88872   1.00
C6       1.13626    1.31604    0.90982   1.00
H3       1.05204    1.36049    0.90870   1.00
H3       1.14654    1.31484    0.97302   1.00
H3       1.10201    1.33076    0.85735   1.00
H3       1.16188    1.30180    0.89817   1.00
C4       0.77083    1.00076    1.00013   1.00
C4       0.72917    0.99924    0.99987   1.00
C3       0.79154    1.02765    1.02370   1.00
C3       0.70679    1.00369    1.03427   1.00
C3       0.79357    0.97473    0.97746   1.00
C3       0.70813    0.99412    0.96469   1.00
C2       0.85513    1.00238    1.00192   1.00
C2       0.64486    0.99781    0.99834   1.00
C3       0.83285    1.02842    1.02448   1.00
C3       0.66551    1.00291    1.03345   1.00
C3       0.83486    0.97559    0.97838   1.00
C3a      0.66672    0.99333    0.96374   1.00
H1       0.77575    1.04852    1.04140   1.00
H1       0.72125    1.00732    1.06212   1.00
H1       0.84760    1.04947    1.04283   1.00
H1       0.64944    1.00624    1.06045   1.00
H1       0.85118    0.95506    0.96078   1.00
C5       0.64620    0.98802    0.92526   1.00
H1       0.72378    0.99092    0.93747   1.00
H1       0.77941    0.95297    0.95944   1.00
H2       0.61401    0.98729    0.92923   1.00
H2       0.65295    1.01348    0.90634   1.00
N1       0.65875    0.95181    0.90645   1.00
C6       0.65356    0.91547    0.92047   1.00
C6       0.67712    0.94863    0.87186   1.00
C6       0.66898    0.88872    0.89466   1.00
C6       0.68396    0.90982    0.86374   1.00
H3       0.63951    0.90870    0.94796   1.00
H3       0.68516    0.97302    0.85346   1.00
H3       0.66924    0.85735    0.89799   1.00
H3       0.69820    0.89817    0.83812   1.00
C4       1.22917    1.00076    0.99987   1.00
C4       1.27083    0.99924    1.00013   1.00
C3       1.20846    1.02765    0.97630   1.00
C3       1.29321    1.00369    0.96573   1.00
C3       1.20643    0.97473    1.02254   1.00
C3       1.29187    0.99412    1.03531   1.00
C2       1.14487    1.00238    0.99808   1.00
C2       1.35514    0.99781    1.00166   1.00
C3       1.16715    1.02842    0.97552   1.00
C3       1.33449    1.00291    0.96655   1.00
C3       1.16514    0.97559    1.02162   1.00
C3a      1.33328    0.99333    1.03626   1.00
H1       1.22425    1.04852    0.95860   1.00
H1       1.27875    1.00732    0.93788   1.00
H1       1.15240    1.04947    0.95717   1.00
H1       1.35056    1.00624    0.93955   1.00
H1       1.14882    0.95506    1.03922   1.00
C5       1.35380    0.98802    1.07474   1.00
H1       1.27622    0.99092    1.06253   1.00
H1       1.22059    0.95297    1.04056   1.00
H2       1.38599    0.98729    1.07077   1.00
H2       1.34705    1.01348    1.09366   1.00
N1       1.34125    0.95181    1.09355   1.00
C6       1.34644    0.91547    1.07953   1.00
C6       1.32288    0.94863    1.12814   1.00
C6       1.33102    0.88872    1.10534   1.00
C6       1.31604    0.90982    1.13626   1.00
H3       1.36049    0.90870    1.05204   1.00
H3       1.31484    0.97302    1.14654   1.00
H3       1.33076    0.85735    1.10201   1.00
H3       1.30180    0.89817    1.16188   1.00
C4       1.00013    0.77083    1.00076   1.00
C4       0.99987    0.72917    0.99924   1.00
C3       1.02370    0.79154    1.02765   1.00
C3       1.03427    0.70679    1.00369   1.00
C3       0.97746    0.79357    0.97473   1.00
C3       0.96469    0.70813    0.99412   1.00
C2       1.00192    0.85513    1.00238   1.00
C2       0.99834    0.64486    0.99781   1.00
C3       1.02448    0.83285    1.02842   1.00
C3       1.03345    0.66551    1.00291   1.00
C3       0.97838    0.83486    0.97559   1.00
C3a      0.96374    0.66672    0.99333   1.00
H1       1.04140    0.77575    1.04852   1.00
H1       1.06212    0.72125    1.00732   1.00
H1       1.04283    0.84760    1.04947   1.00
H1       1.06045    0.64944    1.00624   1.00
H1       0.96078    0.85118    0.95506   1.00
C5       0.92526    0.64620    0.98802   1.00
H1       0.93747    0.72378    0.99092   1.00
H1       0.95944    0.77941    0.95297   1.00
H2       0.92923    0.61401    0.98729   1.00
H2       0.90634    0.65295    1.01348   1.00
N1       0.90645    0.65875    0.95181   1.00
C6       0.92047    0.65356    0.91547   1.00
C6       0.87186    0.67712    0.94863   1.00
C6       0.89466    0.66898    0.88872   1.00
C6       0.86374    0.68396    0.90982   1.00
H3       0.94796    0.63951    0.90870   1.00
H3       0.85346    0.68516    0.97302   1.00
H3       0.89799    0.66924    0.85735   1.00
H3       0.83812    0.69820    0.89817   1.00
C4       1.00076    1.00013    0.77083   1.00
C4       0.99924    0.99987    0.72917   1.00
C3       1.02765    1.02370    0.79154   1.00
C3       1.00369    1.03427    0.70679   1.00
C3       0.97473    0.97746    0.79357   1.00
C3       0.99412    0.96469    0.70813   1.00
C2       1.00238    1.00192    0.85513   1.00
C2       0.99781    0.99834    0.64486   1.00
C3       1.02842    1.02448    0.83285   1.00
C3       1.00291    1.03345    0.66551   1.00
C3       0.97559    0.97838    0.83486   1.00
C3a      0.99333    0.96374    0.66672   1.00
H1       1.04852    1.04140    0.77575   1.00
H1       1.00732    1.06212    0.72125   1.00
H1       1.04947    1.04283    0.84760   1.00
H1       1.00624    1.06045    0.64944   1.00
H1       0.95506    0.96078    0.85118   1.00
C5       0.98802    0.92526    0.64620   1.00
H1       0.99092    0.93747    0.72378   1.00
H1       0.95297    0.95944    0.77941   1.00
H2       0.98729    0.92923    0.61401   1.00
H2       1.01348    0.90634    0.65295   1.00
N1       0.95181    0.90645    0.65875   1.00
C6       0.91547    0.92047    0.65356   1.00
C6       0.94863    0.87186    0.67712   1.00
C6       0.88872    0.89466    0.66898   1.00
C6       0.90982    0.86374    0.68396   1.00
H3       0.90870    0.94796    0.63951   1.00
H3       0.97302    0.85346    0.68516   1.00
H3       0.85735    0.89799    0.66924   1.00
H3       0.89817    0.83812    0.69820   1.00
C4       0.50076    0.49987    1.22917   1.00
C4       0.49924    0.50013    1.27083   1.00
C3       0.52765    0.47630    1.20846   1.00
C3       0.50369    0.46573    1.29321   1.00
C3       0.47473    0.52254    1.20643   1.00
C3       0.49412    0.53531    1.29187   1.00
C2       0.50238    0.49808    1.14487   1.00
C2       0.49781    0.50166    1.35514   1.00
C3       0.52842    0.47552    1.16715   1.00
C3       0.50291    0.46655    1.33449   1.00
C3       0.47559    0.52162    1.16514   1.00
C3a      0.49333    0.53626    1.33328   1.00
H1       0.54852    0.45860    1.22425   1.00
H1       0.50732    0.43788    1.27875   1.00
H1       0.54947    0.45717    1.15240   1.00
H1       0.50624    0.43955    1.35056   1.00
H1       0.45506    0.53922    1.14882   1.00
C5       0.48802    0.57474    1.35380   1.00
H1       0.49092    0.56253    1.27622   1.00
H1       0.45297    0.54056    1.22059   1.00
H2       0.48729    0.57077    1.38599   1.00
H2       0.51348    0.59366    1.34705   1.00
N1       0.45181    0.59355    1.34125   1.00
C6       0.41547    0.57953    1.34644   1.00
C6       0.44863    0.62814    1.32288   1.00
C6       0.38872    0.60534    1.33102   1.00
C6       0.40982    0.63626    1.31604   1.00
H3       0.40870    0.55204    1.36049   1.00
H3       0.47302    0.64654    1.31484   1.00
H3       0.35735    0.60201    1.33076   1.00
H3       0.39817    0.66188    1.30180   1.00
C4       0.49987    0.72917    1.00076   1.00
C4       0.50013    0.77083    0.99924   1.00
C3       0.47630    0.70846    1.02765   1.00
C3       0.46573    0.79321    1.00369   1.00
C3       0.52254    0.70643    0.97473   1.00
C3       0.53531    0.79187    0.99412   1.00
C2       0.49808    0.64487    1.00238   1.00
C2       0.50166    0.85514    0.99781   1.00
C3       0.47552    0.66715    1.02842   1.00
C3       0.46655    0.83449    1.00291   1.00
C3       0.52162    0.66514    0.97559   1.00
C3a      0.53626    0.83328    0.99333   1.00
H1       0.45860    0.72425    1.04852   1.00
H1       0.43788    0.77875    1.00732   1.00
H1       0.45717    0.65240    1.04947   1.00
H1       0.43955    0.85056    1.00624   1.00
H1       0.53922    0.64882    0.95506   1.00
C5       0.57474    0.85380    0.98802   1.00
H1       0.56253    0.77622    0.99092   1.00
H1       0.54056    0.72059    0.95297   1.00
H2       0.57077    0.88599    0.98729   1.00
H2       0.59366    0.84705    1.01348   1.00
N1       0.59355    0.84125    0.95181   1.00
C6       0.57953    0.84644    0.91547   1.00
C6       0.62814    0.82288    0.94863   1.00
C6       0.60534    0.83102    0.88872   1.00
C6       0.63626    0.81604    0.90982   1.00
H3       0.55204    0.86049    0.90870   1.00
H3       0.64654    0.81484    0.97302   1.00
H3       0.60201    0.83076    0.85735   1.00
H3       0.66188    0.80180    0.89817   1.00
C4       0.27083    0.50076    1.00013   1.00
C4       0.22917    0.49924    0.99987   1.00
C3       0.29154    0.52765    1.02370   1.00
C3       0.20679    0.50369    1.03427   1.00
C3       0.29357    0.47473    0.97746   1.00
C3       0.20813    0.49412    0.96469   1.00
C2       0.35513    0.50238    1.00192   1.00
C2       0.14486    0.49781    0.99834   1.00
C3       0.33285    0.52842    1.02448   1.00
C3       0.16551    0.50291    1.03345   1.00
C3       0.33486    0.47559    0.97838   1.00
C3a      0.16672    0.49333    0.96374   1.00
H1       0.27575    0.54852    1.04140   1.00
H1       0.22125    0.50732    1.06212   1.00
H1       0.34760    0.54947    1.04283   1.00
H1       0.14944    0.50624    1.06045   1.00
H1       0.35118    0.45506    0.96078   1.00
C5       0.14620    0.48802    0.92526   1.00
H1       0.22378    0.49092    0.93747   1.00
H1       0.27941    0.45297    0.95944   1.00
H2       0.11401    0.48729    0.92923   1.00
H2       0.15295    0.51348    0.90634   1.00
N1       0.15875    0.45181    0.90645   1.00
C6       0.15356    0.41547    0.92047   1.00
C6       0.17712    0.44863    0.87186   1.00
C6       0.16898    0.38872    0.89466   1.00
C6       0.18396    0.40982    0.86374   1.00
H3       0.13951    0.40870    0.94796   1.00
H3       0.18516    0.47302    0.85346   1.00
H3       0.16924    0.35735    0.89799   1.00
H3       0.19820    0.39817    0.83812   1.00
C4       0.72917    0.50076    0.99987   1.00
C4       0.77083    0.49924    1.00013   1.00
C3       0.70846    0.52765    0.97630   1.00
C3       0.79321    0.50369    0.96573   1.00
C3       0.70643    0.47473    1.02254   1.00
C3       0.79187    0.49412    1.03531   1.00
C2       0.64487    0.50238    0.99808   1.00
C2       0.85514    0.49781    1.00166   1.00
C3       0.66715    0.52842    0.97552   1.00
C3       0.83449    0.50291    0.96655   1.00
C3       0.66514    0.47559    1.02162   1.00
C3a      0.83328    0.49333    1.03626   1.00
H1       0.72425    0.54852    0.95860   1.00
H1       0.77875    0.50732    0.93788   1.00
H1       0.65240    0.54947    0.95717   1.00
H1       0.85056    0.50624    0.93955   1.00
H1       0.64882    0.45506    1.03922   1.00
C5       0.85380    0.48802    1.07474   1.00
H1       0.77622    0.49092    1.06253   1.00
H1       0.72059    0.45297    1.04056   1.00
H2       0.88599    0.48729    1.07077   1.00
H2       0.84705    0.51348    1.09366   1.00
N1       0.84125    0.45181    1.09355   1.00
C6       0.84644    0.41547    1.07953   1.00
C6       0.82288    0.44863    1.12814   1.00
C6       0.83102    0.38872    1.10534   1.00
C6       0.81604    0.40982    1.13626   1.00
H3       0.86049    0.40870    1.05204   1.00
H3       0.81484    0.47302    1.14654   1.00
H3       0.83076    0.35735    1.10201   1.00
H3       0.80180    0.39817    1.16188   1.00
C4       0.50013    0.27083    1.00076   1.00
C4       0.49987    0.22917    0.99924   1.00
C3       0.52370    0.29154    1.02765   1.00
C3       0.53427    0.20679    1.00369   1.00
C3       0.47746    0.29357    0.97473   1.00
C3       0.46469    0.20813    0.99412   1.00
C2       0.50192    0.35513    1.00238   1.00
C2       0.49834    0.14486    0.99781   1.00
C3       0.52448    0.33285    1.02842   1.00
C3       0.53345    0.16551    1.00291   1.00
C3       0.47838    0.33486    0.97559   1.00
C3a      0.46374    0.16672    0.99333   1.00
H1       0.54140    0.27575    1.04852   1.00
H1       0.56212    0.22125    1.00732   1.00
H1       0.54283    0.34760    1.04947   1.00
H1       0.56045    0.14944    1.00624   1.00
H1       0.46078    0.35118    0.95506   1.00
C5       0.42526    0.14620    0.98802   1.00
H1       0.43747    0.22378    0.99092   1.00
H1       0.45944    0.27941    0.95297   1.00
H2       0.42923    0.11401    0.98729   1.00
H2       0.40634    0.15295    1.01348   1.00
N1       0.40645    0.15875    0.95181   1.00
C6       0.42047    0.15356    0.91547   1.00
C6       0.37186    0.17712    0.94863   1.00
C6       0.39466    0.16898    0.88872   1.00
C6       0.36374    0.18396    0.90982   1.00
H3       0.44796    0.13951    0.90870   1.00
H3       0.35346    0.18516    0.97302   1.00
H3       0.39799    0.16924    0.85735   1.00
H3       0.33812    0.19820    0.89817   1.00
C4       0.50076    0.50013    0.77083   1.00
C4       0.49924    0.49987    0.72917   1.00
C3       0.52765    0.52370    0.79154   1.00
C3       0.50369    0.53427    0.70679   1.00
C3       0.47473    0.47746    0.79357   1.00
C3       0.49412    0.46469    0.70813   1.00
C2       0.50238    0.50192    0.85513   1.00
C2       0.49781    0.49834    0.64486   1.00
C3       0.52842    0.52448    0.83285   1.00
C3       0.50291    0.53345    0.66551   1.00
C3       0.47559    0.47838    0.83486   1.00
C3a      0.49333    0.46374    0.66672   1.00
H1       0.54852    0.54140    0.77575   1.00
H1       0.50732    0.56212    0.72125   1.00
H1       0.54947    0.54283    0.84760   1.00
H1       0.50624    0.56045    0.64944   1.00
H1       0.45506    0.46078    0.85118   1.00
C5       0.48802    0.42526    0.64620   1.00
H1       0.49092    0.43747    0.72378   1.00
H1       0.45297    0.45944    0.77941   1.00
H2       0.48729    0.42923    0.61401   1.00
H2       0.51348    0.40634    0.65295   1.00
N1       0.45181    0.40645    0.65875   1.00
C6       0.41547    0.42047    0.65356   1.00
C6       0.44863    0.37186    0.67712   1.00
C6       0.38872    0.39466    0.66898   1.00
C6       0.40982    0.36374    0.68396   1.00
H3       0.40870    0.44796    0.63951   1.00
H3       0.47302    0.35346    0.68516   1.00
H3       0.35735    0.39799    0.66924   1.00
H3       0.39817    0.33812    0.69820   1.00
C4       0.50076    0.99987    0.72917   1.00
C4       0.49924    1.00013    0.77083   1.00
C3       0.52765    0.97630    0.70846   1.00
C3       0.50369    0.96573    0.79321   1.00
C3       0.47473    1.02254    0.70643   1.00
C3       0.49412    1.03531    0.79187   1.00
C2       0.50238    0.99808    0.64487   1.00
C2       0.49781    1.00166    0.85514   1.00
C3       0.52842    0.97552    0.66715   1.00
C3       0.50291    0.96655    0.83449   1.00
C3       0.47559    1.02162    0.66514   1.00
C3a      0.49333    1.03626    0.83328   1.00
H1       0.54852    0.95860    0.72425   1.00
H1       0.50732    0.93788    0.77875   1.00
H1       0.54947    0.95717    0.65240   1.00
H1       0.50624    0.93955    0.85056   1.00
H1       0.45506    1.03922    0.64882   1.00
C5       0.48802    1.07474    0.85380   1.00
H1       0.49092    1.06253    0.77622   1.00
H1       0.45297    1.04056    0.72059   1.00
H2       0.48729    1.07077    0.88599   1.00
H2       0.51348    1.09366    0.84705   1.00
N1       0.45181    1.09355    0.84125   1.00
C6       0.41547    1.07953    0.84644   1.00
C6       0.44863    1.12814    0.82288   1.00
C6       0.38872    1.10534    0.83102   1.00
C6       0.40982    1.13626    0.81604   1.00
H3       0.40870    1.05204    0.86049   1.00
H3       0.47302    1.14654    0.81484   1.00
H3       0.35735    1.10201    0.83076   1.00
H3       0.39817    1.16188    0.80180   1.00
C4       0.49987    1.22917    0.50076   1.00
C4       0.50013    1.27083    0.49924   1.00
C3       0.47630    1.20846    0.52765   1.00
C3       0.46573    1.29321    0.50369   1.00
C3       0.52254    1.20643    0.47473   1.00
C3       0.53531    1.29187    0.49412   1.00
C2       0.49808    1.14487    0.50238   1.00
C2       0.50166    1.35514    0.49781   1.00
C3       0.47552    1.16715    0.52842   1.00
C3       0.46655    1.33449    0.50291   1.00
C3       0.52162    1.16514    0.47559   1.00
C3a      0.53626    1.33328    0.49333   1.00
H1       0.45860    1.22425    0.54852   1.00
H1       0.43788    1.27875    0.50732   1.00
H1       0.45717    1.15240    0.54947   1.00
H1       0.43955    1.35056    0.50624   1.00
H1       0.53922    1.14882    0.45506   1.00
C5       0.57474    1.35380    0.48802   1.00
H1       0.56253    1.27622    0.49092   1.00
H1       0.54056    1.22059    0.45297   1.00
H2       0.57077    1.38599    0.48729   1.00
H2       0.59366    1.34705    0.51348   1.00
N1       0.59355    1.34125    0.45181   1.00
C6       0.57953    1.34644    0.41547   1.00
C6       0.62814    1.32288    0.44863   1.00
C6       0.60534    1.33102    0.38872   1.00
C6       0.63626    1.31604    0.40982   1.00
H3       0.55204    1.36049    0.40870   1.00
H3       0.64654    1.31484    0.47302   1.00
H3       0.60201    1.33076    0.35735   1.00
H3       0.66188    1.30180    0.39817   1.00
C4       0.27083    1.00076    0.50013   1.00
C4       0.22917    0.99924    0.49987   1.00
C3       0.29154    1.02765    0.52370   1.00
C3       0.20679    1.00369    0.53427   1.00
C3       0.29357    0.97473    0.47746   1.00
C3       0.20813    0.99412    0.46469   1.00
C2       0.35513    1.00238    0.50192   1.00
C2       0.14486    0.99781    0.49834   1.00
C3       0.33285    1.02842    0.52448   1.00
C3       0.16551    1.00291    0.53345   1.00
C3       0.33486    0.97559    0.47838   1.00
C3a      0.16672    0.99333    0.46374   1.00
H1       0.27575    1.04852    0.54140   1.00
H1       0.22125    1.00732    0.56212   1.00
H1       0.34760    1.04947    0.54283   1.00
H1       0.14944    1.00624    0.56045   1.00
H1       0.35118    0.95506    0.46078   1.00
C5       0.14620    0.98802    0.42526   1.00
H1       0.22378    0.99092    0.43747   1.00
H1       0.27941    0.95297    0.45944   1.00
H2       0.11401    0.98729    0.42923   1.00
H2       0.15295    1.01348    0.40634   1.00
N1       0.15875    0.95181    0.40645   1.00
C6       0.15356    0.91547    0.42047   1.00
C6       0.17712    0.94863    0.37186   1.00
C6       0.16898    0.88872    0.39466   1.00
C6       0.18396    0.90982    0.36374   1.00
H3       0.13951    0.90870    0.44796   1.00
H3       0.18516    0.97302    0.35346   1.00
H3       0.16924    0.85735    0.39799   1.00
H3       0.19820    0.89817    0.33812   1.00
C4       0.72917    1.00076    0.49987   1.00
C4       0.77083    0.99924    0.50013   1.00
C3       0.70846    1.02765    0.47630   1.00
C3       0.79321    1.00369    0.46573   1.00
C3       0.70643    0.97473    0.52254   1.00
C3       0.79187    0.99412    0.53531   1.00
C2       0.64487    1.00238    0.49808   1.00
C2       0.85514    0.99781    0.50166   1.00
C3       0.66715    1.02842    0.47552   1.00
C3       0.83449    1.00291    0.46655   1.00
C3       0.66514    0.97559    0.52162   1.00
C3a      0.83328    0.99333    0.53626   1.00
H1       0.72425    1.04852    0.45860   1.00
H1       0.77875    1.00732    0.43788   1.00
H1       0.65240    1.04947    0.45717   1.00
H1       0.85056    1.00624    0.43955   1.00
H1       0.64882    0.95506    0.53922   1.00
C5       0.85380    0.98802    0.57474   1.00
H1       0.77622    0.99092    0.56253   1.00
H1       0.72059    0.95297    0.54056   1.00
H2       0.88599    0.98729    0.57077   1.00
H2       0.84705    1.01348    0.59366   1.00
N1       0.84125    0.95181    0.59355   1.00
C6       0.84644    0.91547    0.57953   1.00
C6       0.82288    0.94863    0.62814   1.00
C6       0.83102    0.88872    0.60534   1.00
C6       0.81604    0.90982    0.63626   1.00
H3       0.86049    0.90870    0.55204   1.00
H3       0.81484    0.97302    0.64654   1.00
H3       0.83076    0.85735    0.60201   1.00
H3       0.80180    0.89817    0.66188   1.00
C4       0.50013    0.77083    0.50076   1.00
C4       0.49987    0.72917    0.49924   1.00
C3       0.52370    0.79154    0.52765   1.00
C3       0.53427    0.70679    0.50369   1.00
C3       0.47746    0.79357    0.47473   1.00
C3       0.46469    0.70813    0.49412   1.00
C2       0.50192    0.85513    0.50238   1.00
C2       0.49834    0.64486    0.49781   1.00
C3       0.52448    0.83285    0.52842   1.00
C3       0.53345    0.66551    0.50291   1.00
C3       0.47838    0.83486    0.47559   1.00
C3a      0.46374    0.66672    0.49333   1.00
H1       0.54140    0.77575    0.54852   1.00
H1       0.56212    0.72125    0.50732   1.00
H1       0.54283    0.84760    0.54947   1.00
H1       0.56045    0.64944    0.50624   1.00
H1       0.46078    0.85118    0.45506   1.00
C5       0.42526    0.64620    0.48802   1.00
H1       0.43747    0.72378    0.49092   1.00
H1       0.45944    0.77941    0.45297   1.00
H2       0.42923    0.61401    0.48729   1.00
H2       0.40634    0.65295    0.51348   1.00
N1       0.40645    0.65875    0.45181   1.00
C6       0.42047    0.65356    0.41547   1.00
C6       0.37186    0.67712    0.44863   1.00
C6       0.39466    0.66898    0.38872   1.00
C6       0.36374    0.68396    0.40982   1.00
H3       0.44796    0.63951    0.40870   1.00
H3       0.35346    0.68516    0.47302   1.00
H3       0.39799    0.66924    0.35735   1.00
H3       0.33812    0.69820    0.39817   1.00
C4       0.50076    1.00013    0.27083   1.00
C4       0.49924    0.99987    0.22917   1.00
C3       0.52765    1.02370    0.29154   1.00
C3       0.50369    1.03427    0.20679   1.00
C3       0.47473    0.97746    0.29357   1.00
C3       0.49412    0.96469    0.20813   1.00
C2       0.50238    1.00192    0.35513   1.00
C2       0.49781    0.99834    0.14486   1.00
C3       0.52842    1.02448    0.33285   1.00
C3       0.50291    1.03345    0.16551   1.00
C3       0.47559    0.97838    0.33486   1.00
C3a      0.49333    0.96374    0.16672   1.00
H1       0.54852    1.04140    0.27575   1.00
H1       0.50732    1.06212    0.22125   1.00
H1       0.54947    1.04283    0.34760   1.00
H1       0.50624    1.06045    0.14944   1.00
H1       0.45506    0.96078    0.35118   1.00
C5       0.48802    0.92526    0.14620   1.00
H1       0.49092    0.93747    0.22378   1.00
H1       0.45297    0.95944    0.27941   1.00
H2       0.48729    0.92923    0.11401   1.00
H2       0.51348    0.90634    0.15295   1.00
N1       0.45181    0.90645    0.15875   1.00
C6       0.41547    0.92047    0.15356   1.00
C6       0.44863    0.87186    0.17712   1.00
C6       0.38872    0.89466    0.16898   1.00
C6       0.40982    0.86374    0.18396   1.00
H3       0.40870    0.94796    0.13951   1.00
H3       0.47302    0.85346    0.18516   1.00
H3       0.35735    0.89799    0.16924   1.00
H3       0.39817    0.83812    0.19820   1.00
C4       1.00076    0.49987    0.72917   1.00
C4       0.99924    0.50013    0.77083   1.00
C3       1.02765    0.47630    0.70846   1.00
C3       1.00369    0.46573    0.79321   1.00
C3       0.97473    0.52254    0.70643   1.00
C3       0.99412    0.53531    0.79187   1.00
C2       1.00238    0.49808    0.64487   1.00
C2       0.99781    0.50166    0.85514   1.00
C3       1.02842    0.47552    0.66715   1.00
C3       1.00291    0.46655    0.83449   1.00
C3       0.97559    0.52162    0.66514   1.00
C3a      0.99333    0.53626    0.83328   1.00
H1       1.04852    0.45860    0.72425   1.00
H1       1.00732    0.43788    0.77875   1.00
H1       1.04947    0.45717    0.65240   1.00
H1       1.00624    0.43955    0.85056   1.00
H1       0.95506    0.53922    0.64882   1.00
C5       0.98802    0.57474    0.85380   1.00
H1       0.99092    0.56253    0.77622   1.00
H1       0.95297    0.54056    0.72059   1.00
H2       0.98729    0.57077    0.88599   1.00
H2       1.01348    0.59366    0.84705   1.00
N1       0.95181    0.59355    0.84125   1.00
C6       0.91547    0.57953    0.84644   1.00
C6       0.94863    0.62814    0.82288   1.00
C6       0.88872    0.60534    0.83102   1.00
C6       0.90982    0.63626    0.81604   1.00
H3       0.90870    0.55204    0.86049   1.00
H3       0.97302    0.64654    0.81484   1.00
H3       0.85735    0.60201    0.83076   1.00
H3       0.89817    0.66188    0.80180   1.00
C4       0.99987    0.72917    0.50076   1.00
C4       1.00013    0.77083    0.49924   1.00
C3       0.97630    0.70846    0.52765   1.00
C3       0.96573    0.79321    0.50369   1.00
C3       1.02254    0.70643    0.47473   1.00
C3       1.03531    0.79187    0.49412   1.00
C2       0.99808    0.64487    0.50238   1.00
C2       1.00166    0.85514    0.49781   1.00
C3       0.97552    0.66715    0.52842   1.00
C3       0.96655    0.83449    0.50291   1.00
C3       1.02162    0.66514    0.47559   1.00
C3a      1.03626    0.83328    0.49333   1.00
H1       0.95860    0.72425    0.54852   1.00
H1       0.93788    0.77875    0.50732   1.00
H1       0.95717    0.65240    0.54947   1.00
H1       0.93955    0.85056    0.50624   1.00
H1       1.03922    0.64882    0.45506   1.00
C5       1.07474    0.85380    0.48802   1.00
H1       1.06253    0.77622    0.49092   1.00
H1       1.04056    0.72059    0.45297   1.00
H2       1.07077    0.88599    0.48729   1.00
H2       1.09366    0.84705    0.51348   1.00
N1       1.09355    0.84125    0.45181   1.00
C6       1.07953    0.84644    0.41547   1.00
C6       1.12814    0.82288    0.44863   1.00
C6       1.10534    0.83102    0.38872   1.00
C6       1.13626    0.81604    0.40982   1.00
H3       1.05204    0.86049    0.40870   1.00
H3       1.14654    0.81484    0.47302   1.00
H3       1.10201    0.83076    0.35735   1.00
H3       1.16188    0.80180    0.39817   1.00
C4       0.77083    0.50076    0.50013   1.00
C4       0.72917    0.49924    0.49987   1.00
C3       0.79154    0.52765    0.52370   1.00
C3       0.70679    0.50369    0.53427   1.00
C3       0.79357    0.47473    0.47746   1.00
C3       0.70813    0.49412    0.46469   1.00
C2       0.85513    0.50238    0.50192   1.00
C2       0.64486    0.49781    0.49834   1.00
C3       0.83285    0.52842    0.52448   1.00
C3       0.66551    0.50291    0.53345   1.00
C3       0.83486    0.47559    0.47838   1.00
C3a      0.66672    0.49333    0.46374   1.00
H1       0.77575    0.54852    0.54140   1.00
H1       0.72125    0.50732    0.56212   1.00
H1       0.84760    0.54947    0.54283   1.00
H1       0.64944    0.50624    0.56045   1.00
H1       0.85118    0.45506    0.46078   1.00
C5       0.64620    0.48802    0.42526   1.00
H1       0.72378    0.49092    0.43747   1.00
H1       0.77941    0.45297    0.45944   1.00
H2       0.61401    0.48729    0.42923   1.00
H2       0.65295    0.51348    0.40634   1.00
N1       0.65875    0.45181    0.40645   1.00
C6       0.65356    0.41547    0.42047   1.00
C6       0.67712    0.44863    0.37186   1.00
C6       0.66898    0.38872    0.39466   1.00
C6       0.68396    0.40982    0.36374   1.00
H3       0.63951    0.40870    0.44796   1.00
H3       0.68516    0.47302    0.35346   1.00
H3       0.66924    0.35735    0.39799   1.00
H3       0.69820    0.39817    0.33812   1.00
C4       1.22917    0.50076    0.49987   1.00
C4       1.27083    0.49924    0.50013   1.00
C3       1.20846    0.52765    0.47630   1.00
C3       1.29321    0.50369    0.46573   1.00
C3       1.20643    0.47473    0.52254   1.00
C3       1.29187    0.49412    0.53531   1.00
C2       1.14487    0.50238    0.49808   1.00
C2       1.35514    0.49781    0.50166   1.00
C3       1.16715    0.52842    0.47552   1.00
C3       1.33449    0.50291    0.46655   1.00
C3       1.16514    0.47559    0.52162   1.00
C3a      1.33328    0.49333    0.53626   1.00
H1       1.22425    0.54852    0.45860   1.00
H1       1.27875    0.50732    0.43788   1.00
H1       1.15240    0.54947    0.45717   1.00
H1       1.35056    0.50624    0.43955   1.00
H1       1.14882    0.45506    0.53922   1.00
C5       1.35380    0.48802    0.57474   1.00
H1       1.27622    0.49092    0.56253   1.00
H1       1.22059    0.45297    0.54056   1.00
H2       1.38599    0.48729    0.57077   1.00
H2       1.34705    0.51348    0.59366   1.00
N1       1.34125    0.45181    0.59355   1.00
C6       1.34644    0.41547    0.57953   1.00
C6       1.32288    0.44863    0.62814   1.00
C6       1.33102    0.38872    0.60534   1.00
C6       1.31604    0.40982    0.63626   1.00
H3       1.36049    0.40870    0.55204   1.00
H3       1.31484    0.47302    0.64654   1.00
H3       1.33076    0.35735    0.60201   1.00
H3       1.30180    0.39817    0.66188   1.00
C4       1.00013    0.27083    0.50076   1.00
C4       0.99987    0.22917    0.49924   1.00
C3       1.02370    0.29154    0.52765   1.00
C3       1.03427    0.20679    0.50369   1.00
C3       0.97746    0.29357    0.47473   1.00
C3       0.96469    0.20813    0.49412   1.00
C2       1.00192    0.35513    0.50238   1.00
C2       0.99834    0.14486    0.49781   1.00
C3       1.02448    0.33285    0.52842   1.00
C3       1.03345    0.16551    0.50291   1.00
C3       0.97838    0.33486    0.47559   1.00
C3a      0.96374    0.16672    0.49333   1.00
H1       1.04140    0.27575    0.54852   1.00
H1       1.06212    0.22125    0.50732   1.00
H1       1.04283    0.34760    0.54947   1.00
H1       1.06045    0.14944    0.50624   1.00
H1       0.96078    0.35118    0.45506   1.00
C5       0.92526    0.14620    0.48802   1.00
H1       0.93747    0.22378    0.49092   1.00
H1       0.95944    0.27941    0.45297   1.00
H2       0.92923    0.11401    0.48729   1.00
H2       0.90634    0.15295    0.51348   1.00
N1       0.90645    0.15875    0.45181   1.00
C6       0.92047    0.15356    0.41547   1.00
C6       0.87186    0.17712    0.44863   1.00
C6       0.89466    0.16898    0.38872   1.00
C6       0.86374    0.18396    0.40982   1.00
H3       0.94796    0.13951    0.40870   1.00
H3       0.85346    0.18516    0.47302   1.00
H3       0.89799    0.16924    0.35735   1.00
H3       0.83812    0.19820    0.39817   1.00
C4       1.00076    0.50013    0.27083   1.00
C4       0.99924    0.49987    0.22917   1.00
C3       1.02765    0.52370    0.29154   1.00
C3       1.00369    0.53427    0.20679   1.00
C3       0.97473    0.47746    0.29357   1.00
C3       0.99412    0.46469    0.20813   1.00
C2       1.00238    0.50192    0.35513   1.00
C2       0.99781    0.49834    0.14486   1.00
C3       1.02842    0.52448    0.33285   1.00
C3       1.00291    0.53345    0.16551   1.00
C3       0.97559    0.47838    0.33486   1.00
C3a      0.99333    0.46374    0.16672   1.00
H1       1.04852    0.54140    0.27575   1.00
H1       1.00732    0.56212    0.22125   1.00
H1       1.04947    0.54283    0.34760   1.00
H1       1.00624    0.56045    0.14944   1.00
H1       0.95506    0.46078    0.35118   1.00
C5       0.98802    0.42526    0.14620   1.00
H1       0.99092    0.43747    0.22378   1.00
H1       0.95297    0.45944    0.27941   1.00
H2       0.98729    0.42923    0.11401   1.00
H2       1.01348    0.40634    0.15295   1.00
N1       0.95181    0.40645    0.15875   1.00
C6       0.91547    0.42047    0.15356   1.00
C6       0.94863    0.37186    0.17712   1.00
C6       0.88872    0.39466    0.16898   1.00
C6       0.90982    0.36374    0.18396   1.00
H3       0.90870    0.44796    0.13951   1.00
H3       0.97302    0.35346    0.18516   1.00
H3       0.85735    0.39799    0.16924   1.00
H3       0.89817    0.33812    0.19820   1.00
