data_IRMOF10_SG202_interpen_Ligand4lp_label_z.

_audit_creation_method             'generated by an auxiliary program of Tobunporous'

_symmetry_space_group_name_H-M     'P 1'
_symmetry_Int_Tables_number        1
_symmetry_cell_setting             triclinic

_cell_length_a                    34.2800
_cell_length_b                    34.2800
_cell_length_c                    34.2800
_cell_angle_alpha                 90.0000
_cell_angle_beta                  90.0000
_cell_angle_gamma                 90.0000

loop_
_atom_site_label
_atom_site_fract_x
_atom_site_fract_y
_atom_site_fract_z
_atom_site_occupancy
O1       0.75000    0.75000    0.75000   1.00
Zn1      0.71720    0.78280    0.78280   1.00
Zn1      0.78280    0.71720    0.78280   1.00
Zn1      0.78280    0.78280    0.71720   1.00
Zn1      0.71720    0.71720    0.71720   1.00
O2       0.72650    0.77350    0.83820   1.00
O2       0.72650    0.83820    0.77350   1.00
O2       0.66180    0.77350    0.77350   1.00
O2       0.77350    0.72650    0.83820   1.00
O2       0.83820    0.72650    0.77350   1.00
O2       0.77350    0.66180    0.77350   1.00
O2       0.77350    0.83820    0.72650   1.00
O2       0.83820    0.77350    0.72650   1.00
O2       0.77350    0.77350    0.66180   1.00
O2       0.66180    0.72650    0.72650   1.00
O2       0.72650    0.66180    0.72650   1.00
O2       0.72650    0.72650    0.66180   1.00
C1       0.75000    0.75000    0.85520   1.00
C1       0.75000    0.85520    0.75000   1.00
C1       0.64480    0.75000    0.75000   1.00
C1       0.85520    0.75000    0.75000   1.00
C1       0.75000    0.64480    0.75000   1.00
C1       0.75000    0.75000    0.64480   1.00
O1       0.25000    0.25000    0.75000   1.00
Zn1      0.21720    0.28280    0.78280   1.00
Zn1      0.28280    0.21720    0.78280   1.00
Zn1      0.28280    0.28280    0.71720   1.00
Zn1      0.21720    0.21720    0.71720   1.00
O2       0.22650    0.27350    0.83820   1.00
O2       0.22650    0.33820    0.77350   1.00
O2       0.16180    0.27350    0.77350   1.00
O2       0.27350    0.22650    0.83820   1.00
O2       0.33820    0.22650    0.77350   1.00
O2       0.27350    0.16180    0.77350   1.00
O2       0.27350    0.33820    0.72650   1.00
O2       0.33820    0.27350    0.72650   1.00
O2       0.27350    0.27350    0.66180   1.00
O2       0.16180    0.22650    0.72650   1.00
O2       0.22650    0.16180    0.72650   1.00
O2       0.22650    0.22650    0.66180   1.00
C1       0.25000    0.25000    0.85520   1.00
C1       0.25000    0.35520    0.75000   1.00
C1       0.14480    0.25000    0.75000   1.00
C1       0.35520    0.25000    0.75000   1.00
C1       0.25000    0.14480    0.75000   1.00
C1       0.25000    0.25000    0.64480   1.00
O1       0.25000    0.75000    0.25000   1.00
Zn1      0.21720    0.78280    0.28280   1.00
Zn1      0.28280    0.71720    0.28280   1.00
Zn1      0.28280    0.78280    0.21720   1.00
Zn1      0.21720    0.71720    0.21720   1.00
O2       0.22650    0.77350    0.33820   1.00
O2       0.22650    0.83820    0.27350   1.00
O2       0.16180    0.77350    0.27350   1.00
O2       0.27350    0.72650    0.33820   1.00
O2       0.33820    0.72650    0.27350   1.00
O2       0.27350    0.66180    0.27350   1.00
O2       0.27350    0.83820    0.22650   1.00
O2       0.33820    0.77350    0.22650   1.00
O2       0.27350    0.77350    0.16180   1.00
O2       0.16180    0.72650    0.22650   1.00
O2       0.22650    0.66180    0.22650   1.00
O2       0.22650    0.72650    0.16180   1.00
C1       0.25000    0.75000    0.35520   1.00
C1       0.25000    0.85520    0.25000   1.00
C1       0.14480    0.75000    0.25000   1.00
C1       0.35520    0.75000    0.25000   1.00
C1       0.25000    0.64480    0.25000   1.00
C1       0.25000    0.75000    0.14480   1.00
O1       0.75000    0.25000    0.25000   1.00
Zn1      0.71720    0.28280    0.28280   1.00
Zn1      0.78280    0.21720    0.28280   1.00
Zn1      0.78280    0.28280    0.21720   1.00
Zn1      0.71720    0.21720    0.21720   1.00
O2       0.72650    0.27350    0.33820   1.00
O2       0.72650    0.33820    0.27350   1.00
O2       0.66180    0.27350    0.27350   1.00
O2       0.77350    0.22650    0.33820   1.00
O2       0.83820    0.22650    0.27350   1.00
O2       0.77350    0.16180    0.27350   1.00
O2       0.77350    0.33820    0.22650   1.00
O2       0.83820    0.27350    0.22650   1.00
O2       0.77350    0.27350    0.16180   1.00
O2       0.66180    0.22650    0.22650   1.00
O2       0.72650    0.16180    0.22650   1.00
O2       0.72650    0.22650    0.16180   1.00
C1       0.75000    0.25000    0.35520   1.00
C1       0.75000    0.35520    0.25000   1.00
C1       0.64480    0.25000    0.25000   1.00
C1       0.85520    0.25000    0.25000   1.00
C1       0.75000    0.14480    0.25000   1.00
C1       0.75000    0.25000    0.14480   1.00
O1       0.25000    0.25000    0.25000   1.00
Zn1      0.28280    0.21720    0.21720   1.00
Zn1      0.21720    0.28280    0.21720   1.00
Zn1      0.21720    0.21720    0.28280   1.00
Zn1      0.28280    0.28280    0.28280   1.00
O2       0.27350    0.22650    0.16180   1.00
O2       0.27350    0.16180    0.22650   1.00
O2       0.33820    0.22650    0.22650   1.00
O2       0.22650    0.27350    0.16180   1.00
O2       0.16180    0.27350    0.22650   1.00
O2       0.22650    0.33820    0.22650   1.00
O2       0.22650    0.16180    0.27350   1.00
O2       0.16180    0.22650    0.27350   1.00
O2       0.22650    0.22650    0.33820   1.00
O2       0.33820    0.27350    0.27350   1.00
O2       0.27350    0.33820    0.27350   1.00
O2       0.27350    0.27350    0.33820   1.00
C1       0.25000    0.25000    0.14480   1.00
C1       0.25000    0.14480    0.25000   1.00
C1       0.35520    0.25000    0.25000   1.00
C1       0.14480    0.25000    0.25000   1.00
C1       0.25000    0.35520    0.25000   1.00
C1       0.25000    0.25000    0.35520   1.00
O1       0.75000    0.75000    0.25000   1.00
Zn1      0.78280    0.71720    0.21720   1.00
Zn1      0.71720    0.78280    0.21720   1.00
Zn1      0.71720    0.71720    0.28280   1.00
Zn1      0.78280    0.78280    0.28280   1.00
O2       0.77350    0.72650    0.16180   1.00
O2       0.77350    0.66180    0.22650   1.00
O2       0.83820    0.72650    0.22650   1.00
O2       0.72650    0.77350    0.16180   1.00
O2       0.66180    0.77350    0.22650   1.00
O2       0.72650    0.83820    0.22650   1.00
O2       0.72650    0.66180    0.27350   1.00
O2       0.66180    0.72650    0.27350   1.00
O2       0.72650    0.72650    0.33820   1.00
O2       0.83820    0.77350    0.27350   1.00
O2       0.77350    0.83820    0.27350   1.00
O2       0.77350    0.77350    0.33820   1.00
C1       0.75000    0.75000    0.14480   1.00
C1       0.75000    0.64480    0.25000   1.00
C1       0.85520    0.75000    0.25000   1.00
C1       0.64480    0.75000    0.25000   1.00
C1       0.75000    0.85520    0.25000   1.00
C1       0.75000    0.75000    0.35520   1.00
O1       0.75000    0.25000    0.75000   1.00
Zn1      0.78280    0.21720    0.71720   1.00
Zn1      0.71720    0.28280    0.71720   1.00
Zn1      0.71720    0.21720    0.78280   1.00
Zn1      0.78280    0.28280    0.78280   1.00
O2       0.77350    0.22650    0.66180   1.00
O2       0.77350    0.16180    0.72650   1.00
O2       0.83820    0.22650    0.72650   1.00
O2       0.72650    0.27350    0.66180   1.00
O2       0.66180    0.27350    0.72650   1.00
O2       0.72650    0.33820    0.72650   1.00
O2       0.72650    0.16180    0.77350   1.00
O2       0.66180    0.22650    0.77350   1.00
O2       0.72650    0.22650    0.83820   1.00
O2       0.83820    0.27350    0.77350   1.00
O2       0.77350    0.33820    0.77350   1.00
O2       0.77350    0.27350    0.83820   1.00
C1       0.75000    0.25000    0.64480   1.00
C1       0.75000    0.14480    0.75000   1.00
C1       0.85520    0.25000    0.75000   1.00
C1       0.64480    0.25000    0.75000   1.00
C1       0.75000    0.35520    0.75000   1.00
C1       0.75000    0.25000    0.85520   1.00
O1       0.25000    0.75000    0.75000   1.00
Zn1      0.28280    0.71720    0.71720   1.00
Zn1      0.21720    0.78280    0.71720   1.00
Zn1      0.21720    0.71720    0.78280   1.00
Zn1      0.28280    0.78280    0.78280   1.00
O2       0.27350    0.72650    0.66180   1.00
O2       0.27350    0.66180    0.72650   1.00
O2       0.33820    0.72650    0.72650   1.00
O2       0.22650    0.77350    0.66180   1.00
O2       0.16180    0.77350    0.72650   1.00
O2       0.22650    0.83820    0.72650   1.00
O2       0.22650    0.66180    0.77350   1.00
O2       0.16180    0.72650    0.77350   1.00
O2       0.22650    0.72650    0.83820   1.00
O2       0.33820    0.77350    0.77350   1.00
O2       0.27350    0.83820    0.77350   1.00
O2       0.27350    0.77350    0.83820   1.00
C1       0.25000    0.75000    0.64480   1.00
C1       0.25000    0.64480    0.75000   1.00
C1       0.35520    0.75000    0.75000   1.00
C1       0.14480    0.75000    0.75000   1.00
C1       0.25000    0.85520    0.75000   1.00
C1       0.25000    0.75000    0.85520   1.00
O1       1.00000    1.00000    1.00000   1.00
Zn1      0.96720    1.03280    1.03280   1.00
Zn1      1.03280    0.96720    1.03280   1.00
Zn1      1.03280    1.03280    0.96720   1.00
Zn1      0.96720    0.96720    0.96720   1.00
O2       0.97650    1.02350    1.08820   1.00
O2       0.97650    1.08820    1.02350   1.00
O2       0.91180    1.02350    1.02350   1.00
O2       1.02350    0.97650    1.08820   1.00
O2       1.08820    0.97650    1.02350   1.00
O2       1.02350    0.91180    1.02350   1.00
O2       1.02350    1.08820    0.97650   1.00
O2       1.08820    1.02350    0.97650   1.00
O2       1.02350    1.02350    0.91180   1.00
O2       0.91180    0.97650    0.97650   1.00
O2       0.97650    0.91180    0.97650   1.00
O2       0.97650    0.97650    0.91180   1.00
C1       1.00000    1.00000    1.10520   1.00
C1       1.00000    1.10520    1.00000   1.00
C1       0.89480    1.00000    1.00000   1.00
C1       1.10520    1.00000    1.00000   1.00
C1       1.00000    0.89480    1.00000   1.00
C1       1.00000    1.00000    0.89480   1.00
O1       0.50000    0.50000    1.00000   1.00
Zn1      0.46720    0.53280    1.03280   1.00
Zn1      0.53280    0.46720    1.03280   1.00
Zn1      0.53280    0.53280    0.96720   1.00
Zn1      0.46720    0.46720    0.96720   1.00
O2       0.47650    0.52350    1.08820   1.00
O2       0.47650    0.58820    1.02350   1.00
O2       0.41180    0.52350    1.02350   1.00
O2       0.52350    0.47650    1.08820   1.00
O2       0.58820    0.47650    1.02350   1.00
O2       0.52350    0.41180    1.02350   1.00
O2       0.52350    0.58820    0.97650   1.00
O2       0.58820    0.52350    0.97650   1.00
O2       0.52350    0.52350    0.91180   1.00
O2       0.41180    0.47650    0.97650   1.00
O2       0.47650    0.41180    0.97650   1.00
O2       0.47650    0.47650    0.91180   1.00
C1       0.50000    0.50000    1.10520   1.00
C1       0.50000    0.60520    1.00000   1.00
C1       0.39480    0.50000    1.00000   1.00
C1       0.60520    0.50000    1.00000   1.00
C1       0.50000    0.39480    1.00000   1.00
C1       0.50000    0.50000    0.89480   1.00
O1       0.50000    1.00000    0.50000   1.00
Zn1      0.46720    1.03280    0.53280   1.00
Zn1      0.53280    0.96720    0.53280   1.00
Zn1      0.53280    1.03280    0.46720   1.00
Zn1      0.46720    0.96720    0.46720   1.00
O2       0.47650    1.02350    0.58820   1.00
O2       0.47650    1.08820    0.52350   1.00
O2       0.41180    1.02350    0.52350   1.00
O2       0.52350    0.97650    0.58820   1.00
O2       0.58820    0.97650    0.52350   1.00
O2       0.52350    0.91180    0.52350   1.00
O2       0.52350    1.08820    0.47650   1.00
O2       0.58820    1.02350    0.47650   1.00
O2       0.52350    1.02350    0.41180   1.00
O2       0.41180    0.97650    0.47650   1.00
O2       0.47650    0.91180    0.47650   1.00
O2       0.47650    0.97650    0.41180   1.00
C1       0.50000    1.00000    0.60520   1.00
C1       0.50000    1.10520    0.50000   1.00
C1       0.39480    1.00000    0.50000   1.00
C1       0.60520    1.00000    0.50000   1.00
C1       0.50000    0.89480    0.50000   1.00
C1       0.50000    1.00000    0.39480   1.00
O1       1.00000    0.50000    0.50000   1.00
Zn1      0.96720    0.53280    0.53280   1.00
Zn1      1.03280    0.46720    0.53280   1.00
Zn1      1.03280    0.53280    0.46720   1.00
Zn1      0.96720    0.46720    0.46720   1.00
O2       0.97650    0.52350    0.58820   1.00
O2       0.97650    0.58820    0.52350   1.00
O2       0.91180    0.52350    0.52350   1.00
O2       1.02350    0.47650    0.58820   1.00
O2       1.08820    0.47650    0.52350   1.00
O2       1.02350    0.41180    0.52350   1.00
O2       1.02350    0.58820    0.47650   1.00
O2       1.08820    0.52350    0.47650   1.00
O2       1.02350    0.52350    0.41180   1.00
O2       0.91180    0.47650    0.47650   1.00
O2       0.97650    0.41180    0.47650   1.00
O2       0.97650    0.47650    0.41180   1.00
C1       1.00000    0.50000    0.60520   1.00
C1       1.00000    0.60520    0.50000   1.00
C1       0.89480    0.50000    0.50000   1.00
C1       1.10520    0.50000    0.50000   1.00
C1       1.00000    0.39480    0.50000   1.00
C1       1.00000    0.50000    0.39480   1.00
O1       0.50000    0.50000    0.50000   1.00
Zn1      0.53280    0.46720    0.46720   1.00
Zn1      0.46720    0.53280    0.46720   1.00
Zn1      0.46720    0.46720    0.53280   1.00
Zn1      0.53280    0.53280    0.53280   1.00
O2       0.52350    0.47650    0.41180   1.00
O2       0.52350    0.41180    0.47650   1.00
O2       0.58820    0.47650    0.47650   1.00
O2       0.47650    0.52350    0.41180   1.00
O2       0.41180    0.52350    0.47650   1.00
O2       0.47650    0.58820    0.47650   1.00
O2       0.47650    0.41180    0.52350   1.00
O2       0.41180    0.47650    0.52350   1.00
O2       0.47650    0.47650    0.58820   1.00
O2       0.58820    0.52350    0.52350   1.00
O2       0.52350    0.58820    0.52350   1.00
O2       0.52350    0.52350    0.58820   1.00
C1       0.50000    0.50000    0.39480   1.00
C1       0.50000    0.39480    0.50000   1.00
C1       0.60520    0.50000    0.50000   1.00
C1       0.39480    0.50000    0.50000   1.00
C1       0.50000    0.60520    0.50000   1.00
C1       0.50000    0.50000    0.60520   1.00
O1       1.00000    1.00000    0.50000   1.00
Zn1      1.03280    0.96720    0.46720   1.00
Zn1      0.96720    1.03280    0.46720   1.00
Zn1      0.96720    0.96720    0.53280   1.00
Zn1      1.03280    1.03280    0.53280   1.00
O2       1.02350    0.97650    0.41180   1.00
O2       1.02350    0.91180    0.47650   1.00
O2       1.08820    0.97650    0.47650   1.00
O2       0.97650    1.02350    0.41180   1.00
O2       0.91180    1.02350    0.47650   1.00
O2       0.97650    1.08820    0.47650   1.00
O2       0.97650    0.91180    0.52350   1.00
O2       0.91180    0.97650    0.52350   1.00
O2       0.97650    0.97650    0.58820   1.00
O2       1.08820    1.02350    0.52350   1.00
O2       1.02350    1.08820    0.52350   1.00
O2       1.02350    1.02350    0.58820   1.00
C1       1.00000    1.00000    0.39480   1.00
C1       1.00000    0.89480    0.50000   1.00
C1       1.10520    1.00000    0.50000   1.00
C1       0.89480    1.00000    0.50000   1.00
C1       1.00000    1.10520    0.50000   1.00
C1       1.00000    1.00000    0.60520   1.00
O1       1.00000    0.50000    1.00000   1.00
Zn1      1.03280    0.46720    0.96720   1.00
Zn1      0.96720    0.53280    0.96720   1.00
Zn1      0.96720    0.46720    1.03280   1.00
Zn1      1.03280    0.53280    1.03280   1.00
O2       1.02350    0.47650    0.91180   1.00
O2       1.02350    0.41180    0.97650   1.00
O2       1.08820    0.47650    0.97650   1.00
O2       0.97650    0.52350    0.91180   1.00
O2       0.91180    0.52350    0.97650   1.00
O2       0.97650    0.58820    0.97650   1.00
O2       0.97650    0.41180    1.02350   1.00
O2       0.91180    0.47650    1.02350   1.00
O2       0.97650    0.47650    1.08820   1.00
O2       1.08820    0.52350    1.02350   1.00
O2       1.02350    0.58820    1.02350   1.00
O2       1.02350    0.52350    1.08820   1.00
C1       1.00000    0.50000    0.89480   1.00
C1       1.00000    0.39480    1.00000   1.00
C1       1.10520    0.50000    1.00000   1.00
C1       0.89480    0.50000    1.00000   1.00
C1       1.00000    0.60520    1.00000   1.00
C1       1.00000    0.50000    1.10520   1.00
O1       0.50000    1.00000    1.00000   1.00
Zn1      0.53280    0.96720    0.96720   1.00
Zn1      0.46720    1.03280    0.96720   1.00
Zn1      0.46720    0.96720    1.03280   1.00
Zn1      0.53280    1.03280    1.03280   1.00
O2       0.52350    0.97650    0.91180   1.00
O2       0.52350    0.91180    0.97650   1.00
O2       0.58820    0.97650    0.97650   1.00
O2       0.47650    1.02350    0.91180   1.00
O2       0.41180    1.02350    0.97650   1.00
O2       0.47650    1.08820    0.97650   1.00
O2       0.47650    0.91180    1.02350   1.00
O2       0.41180    0.97650    1.02350   1.00
O2       0.47650    0.97650    1.08820   1.00
O2       0.58820    1.02350    1.02350   1.00
O2       0.52350    1.08820    1.02350   1.00
O2       0.52350    1.02350    1.08820   1.00
C1       0.50000    1.00000    0.89480   1.00
C1       0.50000    0.89480    1.00000   1.00
C1       0.60520    1.00000    1.00000   1.00
C1       0.39480    1.00000    1.00000   1.00
C1       0.50000    1.10520    1.00000   1.00
C1       0.50000    1.00000    1.10520   1.00
C4       0.75331    0.74654    0.98025   1.00
C4       0.75305    0.74501    1.02191   1.00
C3       0.78075    0.76942    0.95897   1.00
C3       0.78262    0.76289    1.04504   1.00
C3       0.72524    0.72458    0.95854   1.00
C3       0.72230    0.72491    1.04170   1.00
C2       0.75510    0.74815    0.89595   1.00
C2       0.75153    0.74358    1.10622   1.00
C3       0.78180    0.77010    0.91811   1.00
C3       0.78184    0.76241    1.08591   1.00
C3       0.72744    0.72589    0.91696   1.00
C3       0.72246    0.72528    1.08336   1.00
H1       0.80076    0.78675    0.97237   1.00
H1       0.80604    0.77661    1.03306   1.00
C5       0.69587    0.70229    0.97835   1.00
C5       0.69261    0.70496    1.01998   1.00
H1       0.80241    0.78707    0.90451   1.00
H1       0.80395    0.77599    1.10091   1.00
H1       0.70815    0.71046    0.90052   1.00
H1       0.70095    0.71154    1.09848   1.00
C6       0.66903    0.67596    0.95515   1.00
C6       0.65805    0.68739    1.04119   1.00
H2       0.68613    0.66022    0.93345   1.00
H2       0.64775    0.70800    1.06310   1.00
H2       0.65773    0.65220    0.97286   1.00
H2       0.63270    0.68495    1.02228   1.00
C6       0.63395    0.69827    0.93606   1.00
C6       0.66702    0.64641    1.05942   1.00
H2       0.64442    0.72539    0.92292   1.00
H2       0.69547    0.64713    1.07383   1.00
C6       0.60940    0.67605    0.90459   1.00
C6       0.63674    0.62942    1.08911   1.00
H2       0.61432    0.70733    0.95949   1.00
H2       0.67027    0.62563    1.03546   1.00
C6       0.63370    0.66755    0.86735   1.00
C6       0.63494    0.65401    1.12708   1.00
C6       0.59279    0.63723    0.92074   1.00
C6       0.59537    0.62679    1.07107   1.00
C6       0.57445    0.70222    0.89245   1.00
C6       0.64969    0.58753    1.10054   1.00
H2       0.64637    0.69432    0.85558   1.00
H2       0.66383    0.65696    1.14020   1.00
H2       0.65745    0.64730    0.87330   1.00
H2       0.62370    0.68321    1.12154   1.00
H2       0.61564    0.65451    0.84459   1.00
H2       0.61581    0.64046    1.14863   1.00
H2       0.57348    0.62336    0.89955   1.00
H2       0.57511    0.61236    1.09098   1.00
H2       0.61617    0.61667    0.92725   1.00
H2       0.58374    0.65575    1.06494   1.00
H2       0.57623    0.64229    0.94745   1.00
H2       0.59596    0.61030    1.04385   1.00
H2       0.58461    0.72992    0.88042   1.00
H2       0.67865    0.58779    1.11383   1.00
H2       0.55653    0.68803    0.87025   1.00
H2       0.62954    0.57449    1.12149   1.00
H2       0.55571    0.70860    0.91739   1.00
H2       0.65076    0.56851    1.07502   1.00
C4       0.74654    0.98025    0.75331   1.00
C4       0.74501    1.02191    0.75305   1.00
C3       0.76942    0.95897    0.78075   1.00
C3       0.76289    1.04504    0.78262   1.00
C3       0.72458    0.95854    0.72524   1.00
C3       0.72491    1.04170    0.72230   1.00
C2       0.74815    0.89595    0.75510   1.00
C2       0.74358    1.10622    0.75153   1.00
C3       0.77010    0.91811    0.78180   1.00
C3       0.76241    1.08591    0.78184   1.00
C3       0.72589    0.91696    0.72744   1.00
C3       0.72528    1.08336    0.72246   1.00
H1       0.78675    0.97237    0.80076   1.00
H1       0.77661    1.03306    0.80604   1.00
C5       0.70229    0.97835    0.69587   1.00
C5       0.70496    1.01998    0.69261   1.00
H1       0.78707    0.90451    0.80241   1.00
H1       0.77599    1.10091    0.80395   1.00
H1       0.71046    0.90052    0.70815   1.00
H1       0.71154    1.09848    0.70095   1.00
C6       0.67596    0.95515    0.66903   1.00
C6       0.68739    1.04119    0.65805   1.00
H2       0.66022    0.93345    0.68613   1.00
H2       0.70800    1.06310    0.64775   1.00
H2       0.65220    0.97286    0.65773   1.00
H2       0.68495    1.02228    0.63270   1.00
C6       0.69827    0.93606    0.63395   1.00
C6       0.64641    1.05942    0.66702   1.00
H2       0.72539    0.92292    0.64442   1.00
H2       0.64713    1.07383    0.69547   1.00
C6       0.67605    0.90459    0.60940   1.00
C6       0.62942    1.08911    0.63674   1.00
H2       0.70733    0.95949    0.61432   1.00
H2       0.62563    1.03546    0.67027   1.00
C6       0.66755    0.86735    0.63370   1.00
C6       0.65401    1.12708    0.63494   1.00
C6       0.63723    0.92074    0.59279   1.00
C6       0.62679    1.07107    0.59537   1.00
C6       0.70222    0.89245    0.57445   1.00
C6       0.58753    1.10054    0.64969   1.00
H2       0.69432    0.85558    0.64637   1.00
H2       0.65696    1.14020    0.66383   1.00
H2       0.64730    0.87330    0.65745   1.00
H2       0.68321    1.12154    0.62370   1.00
H2       0.65451    0.84459    0.61564   1.00
H2       0.64046    1.14863    0.61581   1.00
H2       0.62336    0.89955    0.57348   1.00
H2       0.61236    1.09098    0.57511   1.00
H2       0.61667    0.92725    0.61617   1.00
H2       0.65575    1.06494    0.58374   1.00
H2       0.64229    0.94745    0.57623   1.00
H2       0.61030    1.04385    0.59596   1.00
H2       0.72992    0.88042    0.58461   1.00
H2       0.58779    1.11383    0.67865   1.00
H2       0.68803    0.87025    0.55653   1.00
H2       0.57449    1.12149    0.62954   1.00
H2       0.70860    0.91739    0.55571   1.00
H2       0.56851    1.07502    0.65076   1.00
C4       0.51975    0.75331    0.75346   1.00
C4       0.47809    0.75305    0.75499   1.00
C3       0.54103    0.78075    0.73058   1.00
C3       0.45496    0.78262    0.73711   1.00
C3       0.54146    0.72524    0.77542   1.00
C3       0.45830    0.72230    0.77509   1.00
C2       0.60405    0.75510    0.75185   1.00
C2       0.39378    0.75153    0.75642   1.00
C3       0.58189    0.78180    0.72990   1.00
C3       0.41409    0.78184    0.73759   1.00
C3       0.58304    0.72744    0.77411   1.00
C3       0.41664    0.72246    0.77472   1.00
H1       0.52763    0.80076    0.71325   1.00
H1       0.46694    0.80604    0.72339   1.00
C5       0.52165    0.69587    0.79771   1.00
C5       0.48002    0.69261    0.79504   1.00
H1       0.59549    0.80241    0.71293   1.00
H1       0.39909    0.80395    0.72401   1.00
H1       0.59948    0.70815    0.78954   1.00
H1       0.40152    0.70095    0.78846   1.00
C6       0.54485    0.66903    0.82404   1.00
C6       0.45881    0.65805    0.81261   1.00
H2       0.56655    0.68613    0.83978   1.00
H2       0.43690    0.64775    0.79200   1.00
H2       0.52714    0.65773    0.84780   1.00
H2       0.47772    0.63270    0.81505   1.00
C6       0.56394    0.63395    0.80173   1.00
C6       0.44058    0.66702    0.85359   1.00
H2       0.57708    0.64442    0.77461   1.00
H2       0.42617    0.69547    0.85287   1.00
C6       0.59541    0.60940    0.82395   1.00
C6       0.41089    0.63674    0.87058   1.00
H2       0.54051    0.61432    0.79267   1.00
H2       0.46454    0.67027    0.87437   1.00
C6       0.63265    0.63370    0.83245   1.00
C6       0.37292    0.63494    0.84599   1.00
C6       0.57926    0.59279    0.86277   1.00
C6       0.42893    0.59537    0.87321   1.00
C6       0.60755    0.57445    0.79778   1.00
C6       0.39946    0.64969    0.91247   1.00
H2       0.64442    0.64637    0.80568   1.00
H2       0.35980    0.66383    0.84304   1.00
H2       0.62670    0.65745    0.85270   1.00
H2       0.37846    0.62370    0.81679   1.00
H2       0.65541    0.61564    0.84549   1.00
H2       0.35137    0.61581    0.85954   1.00
H2       0.60045    0.57348    0.87664   1.00
H2       0.40902    0.57511    0.88764   1.00
H2       0.57275    0.61617    0.88333   1.00
H2       0.43506    0.58374    0.84425   1.00
H2       0.55255    0.57623    0.85771   1.00
H2       0.45615    0.59596    0.88970   1.00
H2       0.61958    0.58461    0.77008   1.00
H2       0.38617    0.67865    0.91221   1.00
H2       0.62975    0.55653    0.81197   1.00
H2       0.37851    0.62954    0.92551   1.00
H2       0.58261    0.55571    0.79140   1.00
H2       0.42498    0.65076    0.93149   1.00
C4       0.98025    0.75331    0.74654   1.00
C4       1.02191    0.75305    0.74501   1.00
C3       0.95897    0.78075    0.76942   1.00
C3       1.04504    0.78262    0.76289   1.00
C3       0.95854    0.72524    0.72458   1.00
C3       1.04170    0.72230    0.72491   1.00
C2       0.89595    0.75510    0.74815   1.00
C2       1.10622    0.75153    0.74358   1.00
C3       0.91811    0.78180    0.77010   1.00
C3       1.08591    0.78184    0.76241   1.00
C3       0.91696    0.72744    0.72589   1.00
C3       1.08336    0.72246    0.72528   1.00
H1       0.97237    0.80076    0.78675   1.00
H1       1.03306    0.80604    0.77661   1.00
C5       0.97835    0.69587    0.70229   1.00
C5       1.01998    0.69261    0.70496   1.00
H1       0.90451    0.80241    0.78707   1.00
H1       1.10091    0.80395    0.77599   1.00
H1       0.90052    0.70815    0.71046   1.00
H1       1.09848    0.70095    0.71154   1.00
C6       0.95515    0.66903    0.67596   1.00
C6       1.04119    0.65805    0.68739   1.00
H2       0.93345    0.68613    0.66022   1.00
H2       1.06310    0.64775    0.70800   1.00
H2       0.97286    0.65773    0.65220   1.00
H2       1.02228    0.63270    0.68495   1.00
C6       0.93606    0.63395    0.69827   1.00
C6       1.05942    0.66702    0.64641   1.00
H2       0.92292    0.64442    0.72539   1.00
H2       1.07383    0.69547    0.64713   1.00
C6       0.90459    0.60940    0.67605   1.00
C6       1.08911    0.63674    0.62942   1.00
H2       0.95949    0.61432    0.70733   1.00
H2       1.03546    0.67027    0.62563   1.00
C6       0.86735    0.63370    0.66755   1.00
C6       1.12708    0.63494    0.65401   1.00
C6       0.92074    0.59279    0.63723   1.00
C6       1.07107    0.59537    0.62679   1.00
C6       0.89245    0.57445    0.70222   1.00
C6       1.10054    0.64969    0.58753   1.00
H2       0.85558    0.64637    0.69432   1.00
H2       1.14020    0.66383    0.65696   1.00
H2       0.87330    0.65745    0.64730   1.00
H2       1.12154    0.62370    0.68321   1.00
H2       0.84459    0.61564    0.65451   1.00
H2       1.14863    0.61581    0.64046   1.00
H2       0.89955    0.57348    0.62336   1.00
H2       1.09098    0.57511    0.61236   1.00
H2       0.92725    0.61617    0.61667   1.00
H2       1.06494    0.58374    0.65575   1.00
H2       0.94745    0.57623    0.64229   1.00
H2       1.04385    0.59596    0.61030   1.00
H2       0.88042    0.58461    0.72992   1.00
H2       1.11383    0.67865    0.58779   1.00
H2       0.87025    0.55653    0.68803   1.00
H2       1.12149    0.62954    0.57449   1.00
H2       0.91739    0.55571    0.70860   1.00
H2       1.07502    0.65076    0.56851   1.00
C4       0.75346    0.51975    0.75331   1.00
C4       0.75499    0.47809    0.75305   1.00
C3       0.73058    0.54103    0.78075   1.00
C3       0.73711    0.45496    0.78262   1.00
C3       0.77542    0.54146    0.72524   1.00
C3       0.77509    0.45830    0.72230   1.00
C2       0.75185    0.60405    0.75510   1.00
C2       0.75642    0.39378    0.75153   1.00
C3       0.72990    0.58189    0.78180   1.00
C3       0.73759    0.41409    0.78184   1.00
C3       0.77411    0.58304    0.72744   1.00
C3       0.77472    0.41664    0.72246   1.00
H1       0.71325    0.52763    0.80076   1.00
H1       0.72339    0.46694    0.80604   1.00
C5       0.79771    0.52165    0.69587   1.00
C5       0.79504    0.48002    0.69261   1.00
H1       0.71293    0.59549    0.80241   1.00
H1       0.72401    0.39909    0.80395   1.00
H1       0.78954    0.59948    0.70815   1.00
H1       0.78846    0.40152    0.70095   1.00
C6       0.82404    0.54485    0.66903   1.00
C6       0.81261    0.45881    0.65805   1.00
H2       0.83978    0.56655    0.68613   1.00
H2       0.79200    0.43690    0.64775   1.00
H2       0.84780    0.52714    0.65773   1.00
H2       0.81505    0.47772    0.63270   1.00
C6       0.80173    0.56394    0.63395   1.00
C6       0.85359    0.44058    0.66702   1.00
H2       0.77461    0.57708    0.64442   1.00
H2       0.85287    0.42617    0.69547   1.00
C6       0.82395    0.59541    0.60940   1.00
C6       0.87058    0.41089    0.63674   1.00
H2       0.79267    0.54051    0.61432   1.00
H2       0.87437    0.46454    0.67027   1.00
C6       0.83245    0.63265    0.63370   1.00
C6       0.84599    0.37292    0.63494   1.00
C6       0.86277    0.57926    0.59279   1.00
C6       0.87321    0.42893    0.59537   1.00
C6       0.79778    0.60755    0.57445   1.00
C6       0.91247    0.39946    0.64969   1.00
H2       0.80568    0.64442    0.64637   1.00
H2       0.84304    0.35980    0.66383   1.00
H2       0.85270    0.62670    0.65745   1.00
H2       0.81679    0.37846    0.62370   1.00
H2       0.84549    0.65541    0.61564   1.00
H2       0.85954    0.35137    0.61581   1.00
H2       0.87664    0.60045    0.57348   1.00
H2       0.88764    0.40902    0.57511   1.00
H2       0.88333    0.57275    0.61617   1.00
H2       0.84425    0.43506    0.58374   1.00
H2       0.85771    0.55255    0.57623   1.00
H2       0.88970    0.45615    0.59596   1.00
H2       0.77008    0.61958    0.58461   1.00
H2       0.91221    0.38617    0.67865   1.00
H2       0.81197    0.62975    0.55653   1.00
H2       0.92551    0.37851    0.62954   1.00
H2       0.79140    0.58261    0.55571   1.00
H2       0.93149    0.42498    0.65076   1.00
C4       0.75331    0.75346    0.51975   1.00
C4       0.75305    0.75499    0.47809   1.00
C3       0.78075    0.73058    0.54103   1.00
C3       0.78262    0.73711    0.45496   1.00
C3       0.72524    0.77542    0.54146   1.00
C3       0.72230    0.77509    0.45830   1.00
C2       0.75510    0.75185    0.60405   1.00
C2       0.75153    0.75642    0.39378   1.00
C3       0.78180    0.72990    0.58189   1.00
C3       0.78184    0.73759    0.41409   1.00
C3       0.72744    0.77411    0.58304   1.00
C3       0.72246    0.77472    0.41664   1.00
H1       0.80076    0.71325    0.52763   1.00
H1       0.80604    0.72339    0.46694   1.00
C5       0.69587    0.79771    0.52165   1.00
C5       0.69261    0.79504    0.48002   1.00
H1       0.80241    0.71293    0.59549   1.00
H1       0.80395    0.72401    0.39909   1.00
H1       0.70815    0.78954    0.59948   1.00
H1       0.70095    0.78846    0.40152   1.00
C6       0.66903    0.82404    0.54485   1.00
C6       0.65805    0.81261    0.45881   1.00
H2       0.68613    0.83978    0.56655   1.00
H2       0.64775    0.79200    0.43690   1.00
H2       0.65773    0.84780    0.52714   1.00
H2       0.63270    0.81505    0.47772   1.00
C6       0.63395    0.80173    0.56394   1.00
C6       0.66702    0.85359    0.44058   1.00
H2       0.64442    0.77461    0.57708   1.00
H2       0.69547    0.85287    0.42617   1.00
C6       0.60940    0.82395    0.59541   1.00
C6       0.63674    0.87058    0.41089   1.00
H2       0.61432    0.79267    0.54051   1.00
H2       0.67027    0.87437    0.46454   1.00
C6       0.63370    0.83245    0.63265   1.00
C6       0.63494    0.84599    0.37292   1.00
C6       0.59279    0.86277    0.57926   1.00
C6       0.59537    0.87321    0.42893   1.00
C6       0.57445    0.79778    0.60755   1.00
C6       0.64969    0.91247    0.39946   1.00
H2       0.64637    0.80568    0.64442   1.00
H2       0.66383    0.84304    0.35980   1.00
H2       0.65745    0.85270    0.62670   1.00
H2       0.62370    0.81679    0.37846   1.00
H2       0.61564    0.84549    0.65541   1.00
H2       0.61581    0.85954    0.35137   1.00
H2       0.57348    0.87664    0.60045   1.00
H2       0.57511    0.88764    0.40902   1.00
H2       0.61617    0.88333    0.57275   1.00
H2       0.58374    0.84425    0.43506   1.00
H2       0.57623    0.85771    0.55255   1.00
H2       0.59596    0.88970    0.45615   1.00
H2       0.58461    0.77008    0.61958   1.00
H2       0.67865    0.91221    0.38617   1.00
H2       0.55653    0.81197    0.62975   1.00
H2       0.62954    0.92551    0.37851   1.00
H2       0.55571    0.79140    0.58261   1.00
H2       0.65076    0.93149    0.42498   1.00
C4       0.25331    0.24654    0.98025   1.00
C4       0.25305    0.24501    1.02191   1.00
C3       0.28075    0.26942    0.95897   1.00
C3       0.28262    0.26289    1.04504   1.00
C3       0.22524    0.22458    0.95854   1.00
C3       0.22230    0.22491    1.04170   1.00
C2       0.25510    0.24815    0.89595   1.00
C2       0.25153    0.24358    1.10622   1.00
C3       0.28180    0.27010    0.91811   1.00
C3       0.28184    0.26241    1.08591   1.00
C3       0.22744    0.22589    0.91696   1.00
C3       0.22246    0.22528    1.08336   1.00
H1       0.30076    0.28675    0.97237   1.00
H1       0.30604    0.27661    1.03306   1.00
C5       0.19587    0.20229    0.97835   1.00
C5       0.19261    0.20496    1.01998   1.00
H1       0.30241    0.28707    0.90451   1.00
H1       0.30395    0.27599    1.10091   1.00
H1       0.20815    0.21046    0.90052   1.00
H1       0.20095    0.21154    1.09848   1.00
C6       0.16903    0.17596    0.95515   1.00
C6       0.15805    0.18739    1.04119   1.00
H2       0.18613    0.16022    0.93345   1.00
H2       0.14775    0.20800    1.06310   1.00
H2       0.15773    0.15220    0.97286   1.00
H2       0.13270    0.18495    1.02228   1.00
C6       0.13395    0.19827    0.93606   1.00
C6       0.16702    0.14641    1.05942   1.00
H2       0.14442    0.22539    0.92292   1.00
H2       0.19547    0.14713    1.07383   1.00
C6       0.10940    0.17605    0.90459   1.00
C6       0.13674    0.12942    1.08911   1.00
H2       0.11432    0.20733    0.95949   1.00
H2       0.17027    0.12563    1.03546   1.00
C6       0.13370    0.16755    0.86735   1.00
C6       0.13494    0.15401    1.12708   1.00
C6       0.09279    0.13723    0.92074   1.00
C6       0.09537    0.12679    1.07107   1.00
C6       0.07445    0.20222    0.89245   1.00
C6       0.14969    0.08753    1.10054   1.00
H2       0.14637    0.19432    0.85558   1.00
H2       0.16383    0.15696    1.14020   1.00
H2       0.15745    0.14730    0.87330   1.00
H2       0.12370    0.18321    1.12154   1.00
H2       0.11564    0.15451    0.84459   1.00
H2       0.11581    0.14046    1.14863   1.00
H2       0.07348    0.12336    0.89955   1.00
H2       0.07511    0.11236    1.09098   1.00
H2       0.11617    0.11667    0.92725   1.00
H2       0.08374    0.15575    1.06494   1.00
H2       0.07623    0.14229    0.94745   1.00
H2       0.09596    0.11030    1.04385   1.00
H2       0.08461    0.22992    0.88042   1.00
H2       0.17865    0.08779    1.11383   1.00
H2       0.05653    0.18803    0.87025   1.00
H2       0.12954    0.07449    1.12149   1.00
H2       0.05571    0.20860    0.91739   1.00
H2       0.15076    0.06851    1.07502   1.00
C4       0.24654    0.48025    0.75331   1.00
C4       0.24501    0.52191    0.75305   1.00
C3       0.26942    0.45897    0.78075   1.00
C3       0.26289    0.54504    0.78262   1.00
C3       0.22458    0.45854    0.72524   1.00
C3       0.22491    0.54170    0.72230   1.00
C2       0.24815    0.39595    0.75510   1.00
C2       0.24358    0.60622    0.75153   1.00
C3       0.27010    0.41811    0.78180   1.00
C3       0.26241    0.58591    0.78184   1.00
C3       0.22589    0.41696    0.72744   1.00
C3       0.22528    0.58336    0.72246   1.00
H1       0.28675    0.47237    0.80076   1.00
H1       0.27661    0.53306    0.80604   1.00
C5       0.20229    0.47835    0.69587   1.00
C5       0.20496    0.51998    0.69261   1.00
H1       0.28707    0.40451    0.80241   1.00
H1       0.27599    0.60091    0.80395   1.00
H1       0.21046    0.40052    0.70815   1.00
H1       0.21154    0.59848    0.70095   1.00
C6       0.17596    0.45515    0.66903   1.00
C6       0.18739    0.54119    0.65805   1.00
H2       0.16022    0.43345    0.68613   1.00
H2       0.20800    0.56310    0.64775   1.00
H2       0.15220    0.47286    0.65773   1.00
H2       0.18495    0.52228    0.63270   1.00
C6       0.19827    0.43606    0.63395   1.00
C6       0.14641    0.55942    0.66702   1.00
H2       0.22539    0.42292    0.64442   1.00
H2       0.14713    0.57383    0.69547   1.00
C6       0.17605    0.40459    0.60940   1.00
C6       0.12942    0.58911    0.63674   1.00
H2       0.20733    0.45949    0.61432   1.00
H2       0.12563    0.53546    0.67027   1.00
C6       0.16755    0.36735    0.63370   1.00
C6       0.15401    0.62708    0.63494   1.00
C6       0.13723    0.42074    0.59279   1.00
C6       0.12679    0.57107    0.59537   1.00
C6       0.20222    0.39245    0.57445   1.00
C6       0.08753    0.60054    0.64969   1.00
H2       0.19432    0.35558    0.64637   1.00
H2       0.15696    0.64020    0.66383   1.00
H2       0.14730    0.37330    0.65745   1.00
H2       0.18321    0.62154    0.62370   1.00
H2       0.15451    0.34459    0.61564   1.00
H2       0.14046    0.64863    0.61581   1.00
H2       0.12336    0.39955    0.57348   1.00
H2       0.11236    0.59098    0.57511   1.00
H2       0.11667    0.42725    0.61617   1.00
H2       0.15575    0.56494    0.58374   1.00
H2       0.14229    0.44745    0.57623   1.00
H2       0.11030    0.54385    0.59596   1.00
H2       0.22992    0.38042    0.58461   1.00
H2       0.08779    0.61383    0.67865   1.00
H2       0.18803    0.37025    0.55653   1.00
H2       0.07449    0.62149    0.62954   1.00
H2       0.20860    0.41739    0.55571   1.00
H2       0.06851    0.57502    0.65076   1.00
C4       0.01975    0.25331    0.75346   1.00
C4       -0.02191   0.25305    0.75499   1.00
C3       0.04103    0.28075    0.73058   1.00
C3       -0.04504   0.28262    0.73711   1.00
C3       0.04146    0.22524    0.77542   1.00
C3       -0.04170   0.22230    0.77509   1.00
C2       0.10405    0.25510    0.75185   1.00
C2       -0.10622   0.25153    0.75642   1.00
C3       0.08189    0.28180    0.72990   1.00
C3       -0.08591   0.28184    0.73759   1.00
C3       0.08304    0.22744    0.77411   1.00
C3       -0.08336   0.22246    0.77472   1.00
H1       0.02763    0.30076    0.71325   1.00
H1       -0.03306   0.30604    0.72339   1.00
C5       0.02165    0.19587    0.79771   1.00
C5       -0.01998   0.19261    0.79504   1.00
H1       0.09549    0.30241    0.71293   1.00
H1       -0.10091   0.30395    0.72401   1.00
H1       0.09948    0.20815    0.78954   1.00
H1       -0.09848   0.20095    0.78846   1.00
C6       0.04485    0.16903    0.82404   1.00
C6       -0.04119   0.15805    0.81261   1.00
H2       0.06655    0.18613    0.83978   1.00
H2       -0.06310   0.14775    0.79200   1.00
H2       0.02714    0.15773    0.84780   1.00
H2       -0.02228   0.13270    0.81505   1.00
C6       0.06394    0.13395    0.80173   1.00
C6       -0.05942   0.16702    0.85359   1.00
H2       0.07708    0.14442    0.77461   1.00
H2       -0.07383   0.19547    0.85287   1.00
C6       0.09541    0.10940    0.82395   1.00
C6       -0.08911   0.13674    0.87058   1.00
H2       0.04051    0.11432    0.79267   1.00
H2       -0.03546   0.17027    0.87437   1.00
C6       0.13265    0.13370    0.83245   1.00
C6       -0.12708   0.13494    0.84599   1.00
C6       0.07926    0.09279    0.86277   1.00
C6       -0.07107   0.09537    0.87321   1.00
C6       0.10755    0.07445    0.79778   1.00
C6       -0.10054   0.14969    0.91247   1.00
H2       0.14442    0.14637    0.80568   1.00
H2       -0.14020   0.16383    0.84304   1.00
H2       0.12670    0.15745    0.85270   1.00
H2       -0.12154   0.12370    0.81679   1.00
H2       0.15541    0.11564    0.84549   1.00
H2       -0.14863   0.11581    0.85954   1.00
H2       0.10045    0.07348    0.87664   1.00
H2       -0.09098   0.07511    0.88764   1.00
H2       0.07275    0.11617    0.88333   1.00
H2       -0.06494   0.08374    0.84425   1.00
H2       0.05255    0.07623    0.85771   1.00
H2       -0.04385   0.09596    0.88970   1.00
H2       0.11958    0.08461    0.77008   1.00
H2       -0.11383   0.17865    0.91221   1.00
H2       0.12975    0.05653    0.81197   1.00
H2       -0.12149   0.12954    0.92551   1.00
H2       0.08261    0.05571    0.79140   1.00
H2       -0.07502   0.15076    0.93149   1.00
C4       0.48025    0.25331    0.74654   1.00
C4       0.52191    0.25305    0.74501   1.00
C3       0.45897    0.28075    0.76942   1.00
C3       0.54504    0.28262    0.76289   1.00
C3       0.45854    0.22524    0.72458   1.00
C3       0.54170    0.22230    0.72491   1.00
C2       0.39595    0.25510    0.74815   1.00
C2       0.60622    0.25153    0.74358   1.00
C3       0.41811    0.28180    0.77010   1.00
C3       0.58591    0.28184    0.76241   1.00
C3       0.41696    0.22744    0.72589   1.00
C3       0.58336    0.22246    0.72528   1.00
H1       0.47237    0.30076    0.78675   1.00
H1       0.53306    0.30604    0.77661   1.00
C5       0.47835    0.19587    0.70229   1.00
C5       0.51998    0.19261    0.70496   1.00
H1       0.40451    0.30241    0.78707   1.00
H1       0.60091    0.30395    0.77599   1.00
H1       0.40052    0.20815    0.71046   1.00
H1       0.59848    0.20095    0.71154   1.00
C6       0.45515    0.16903    0.67596   1.00
C6       0.54119    0.15805    0.68739   1.00
H2       0.43345    0.18613    0.66022   1.00
H2       0.56310    0.14775    0.70800   1.00
H2       0.47286    0.15773    0.65220   1.00
H2       0.52228    0.13270    0.68495   1.00
C6       0.43606    0.13395    0.69827   1.00
C6       0.55942    0.16702    0.64641   1.00
H2       0.42292    0.14442    0.72539   1.00
H2       0.57383    0.19547    0.64713   1.00
C6       0.40459    0.10940    0.67605   1.00
C6       0.58911    0.13674    0.62942   1.00
H2       0.45949    0.11432    0.70733   1.00
H2       0.53546    0.17027    0.62563   1.00
C6       0.36735    0.13370    0.66755   1.00
C6       0.62708    0.13494    0.65401   1.00
C6       0.42074    0.09279    0.63723   1.00
C6       0.57107    0.09537    0.62679   1.00
C6       0.39245    0.07445    0.70222   1.00
C6       0.60054    0.14969    0.58753   1.00
H2       0.35558    0.14637    0.69432   1.00
H2       0.64020    0.16383    0.65696   1.00
H2       0.37330    0.15745    0.64730   1.00
H2       0.62154    0.12370    0.68321   1.00
H2       0.34459    0.11564    0.65451   1.00
H2       0.64863    0.11581    0.64046   1.00
H2       0.39955    0.07348    0.62336   1.00
H2       0.59098    0.07511    0.61236   1.00
H2       0.42725    0.11617    0.61667   1.00
H2       0.56494    0.08374    0.65575   1.00
H2       0.44745    0.07623    0.64229   1.00
H2       0.54385    0.09596    0.61030   1.00
H2       0.38042    0.08461    0.72992   1.00
H2       0.61383    0.17865    0.58779   1.00
H2       0.37025    0.05653    0.68803   1.00
H2       0.62149    0.12954    0.57449   1.00
H2       0.41739    0.05571    0.70860   1.00
H2       0.57502    0.15076    0.56851   1.00
C4       0.25346    0.01975    0.75331   1.00
C4       0.25499    -0.02191   0.75305   1.00
C3       0.23058    0.04103    0.78075   1.00
C3       0.23711    -0.04504   0.78262   1.00
C3       0.27542    0.04146    0.72524   1.00
C3       0.27509    -0.04170   0.72230   1.00
C2       0.25185    0.10405    0.75510   1.00
C2       0.25642    -0.10622   0.75153   1.00
C3       0.22990    0.08189    0.78180   1.00
C3       0.23759    -0.08591   0.78184   1.00
C3       0.27411    0.08304    0.72744   1.00
C3       0.27472    -0.08336   0.72246   1.00
H1       0.21325    0.02763    0.80076   1.00
H1       0.22339    -0.03306   0.80604   1.00
C5       0.29771    0.02165    0.69587   1.00
C5       0.29504    -0.01998   0.69261   1.00
H1       0.21293    0.09549    0.80241   1.00
H1       0.22401    -0.10091   0.80395   1.00
H1       0.28954    0.09948    0.70815   1.00
H1       0.28846    -0.09848   0.70095   1.00
C6       0.32404    0.04485    0.66903   1.00
C6       0.31261    -0.04119   0.65805   1.00
H2       0.33978    0.06655    0.68613   1.00
H2       0.29200    -0.06310   0.64775   1.00
H2       0.34780    0.02714    0.65773   1.00
H2       0.31505    -0.02228   0.63270   1.00
C6       0.30173    0.06394    0.63395   1.00
C6       0.35359    -0.05942   0.66702   1.00
H2       0.27461    0.07708    0.64442   1.00
H2       0.35287    -0.07383   0.69547   1.00
C6       0.32395    0.09541    0.60940   1.00
C6       0.37058    -0.08911   0.63674   1.00
H2       0.29267    0.04051    0.61432   1.00
H2       0.37437    -0.03546   0.67027   1.00
C6       0.33245    0.13265    0.63370   1.00
C6       0.34599    -0.12708   0.63494   1.00
C6       0.36277    0.07926    0.59279   1.00
C6       0.37321    -0.07107   0.59537   1.00
C6       0.29778    0.10755    0.57445   1.00
C6       0.41247    -0.10054   0.64969   1.00
H2       0.30568    0.14442    0.64637   1.00
H2       0.34304    -0.14020   0.66383   1.00
H2       0.35270    0.12670    0.65745   1.00
H2       0.31679    -0.12154   0.62370   1.00
H2       0.34549    0.15541    0.61564   1.00
H2       0.35954    -0.14863   0.61581   1.00
H2       0.37664    0.10045    0.57348   1.00
H2       0.38764    -0.09098   0.57511   1.00
H2       0.38333    0.07275    0.61617   1.00
H2       0.34425    -0.06494   0.58374   1.00
H2       0.35771    0.05255    0.57623   1.00
H2       0.38970    -0.04385   0.59596   1.00
H2       0.27008    0.11958    0.58461   1.00
H2       0.41221    -0.11383   0.67865   1.00
H2       0.31197    0.12975    0.55653   1.00
H2       0.42551    -0.12149   0.62954   1.00
H2       0.29140    0.08261    0.55571   1.00
H2       0.43149    -0.07502   0.65076   1.00
C4       0.25331    0.25346    0.51975   1.00
C4       0.25305    0.25499    0.47809   1.00
C3       0.28075    0.23058    0.54103   1.00
C3       0.28262    0.23711    0.45496   1.00
C3       0.22524    0.27542    0.54146   1.00
C3       0.22230    0.27509    0.45830   1.00
C2       0.25510    0.25185    0.60405   1.00
C2       0.25153    0.25642    0.39378   1.00
C3       0.28180    0.22990    0.58189   1.00
C3       0.28184    0.23759    0.41409   1.00
C3       0.22744    0.27411    0.58304   1.00
C3       0.22246    0.27472    0.41664   1.00
H1       0.30076    0.21325    0.52763   1.00
H1       0.30604    0.22339    0.46694   1.00
C5       0.19587    0.29771    0.52165   1.00
C5       0.19261    0.29504    0.48002   1.00
H1       0.30241    0.21293    0.59549   1.00
H1       0.30395    0.22401    0.39909   1.00
H1       0.20815    0.28954    0.59948   1.00
H1       0.20095    0.28846    0.40152   1.00
C6       0.16903    0.32404    0.54485   1.00
C6       0.15805    0.31261    0.45881   1.00
H2       0.18613    0.33978    0.56655   1.00
H2       0.14775    0.29200    0.43690   1.00
H2       0.15773    0.34780    0.52714   1.00
H2       0.13270    0.31505    0.47772   1.00
C6       0.13395    0.30173    0.56394   1.00
C6       0.16702    0.35359    0.44058   1.00
H2       0.14442    0.27461    0.57708   1.00
H2       0.19547    0.35287    0.42617   1.00
C6       0.10940    0.32395    0.59541   1.00
C6       0.13674    0.37058    0.41089   1.00
H2       0.11432    0.29267    0.54051   1.00
H2       0.17027    0.37437    0.46454   1.00
C6       0.13370    0.33245    0.63265   1.00
C6       0.13494    0.34599    0.37292   1.00
C6       0.09279    0.36277    0.57926   1.00
C6       0.09537    0.37321    0.42893   1.00
C6       0.07445    0.29778    0.60755   1.00
C6       0.14969    0.41247    0.39946   1.00
H2       0.14637    0.30568    0.64442   1.00
H2       0.16383    0.34304    0.35980   1.00
H2       0.15745    0.35270    0.62670   1.00
H2       0.12370    0.31679    0.37846   1.00
H2       0.11564    0.34549    0.65541   1.00
H2       0.11581    0.35954    0.35137   1.00
H2       0.07348    0.37664    0.60045   1.00
H2       0.07511    0.38764    0.40902   1.00
H2       0.11617    0.38333    0.57275   1.00
H2       0.08374    0.34425    0.43506   1.00
H2       0.07623    0.35771    0.55255   1.00
H2       0.09596    0.38970    0.45615   1.00
H2       0.08461    0.27008    0.61958   1.00
H2       0.17865    0.41221    0.38617   1.00
H2       0.05653    0.31197    0.62975   1.00
H2       0.12954    0.42551    0.37851   1.00
H2       0.05571    0.29140    0.58261   1.00
H2       0.15076    0.43149    0.42498   1.00
C4       0.25331    0.74654    0.48025   1.00
C4       0.25305    0.74501    0.52191   1.00
C3       0.28075    0.76942    0.45897   1.00
C3       0.28262    0.76289    0.54504   1.00
C3       0.22524    0.72458    0.45854   1.00
C3       0.22230    0.72491    0.54170   1.00
C2       0.25510    0.74815    0.39595   1.00
C2       0.25153    0.74358    0.60622   1.00
C3       0.28180    0.77010    0.41811   1.00
C3       0.28184    0.76241    0.58591   1.00
C3       0.22744    0.72589    0.41696   1.00
C3       0.22246    0.72528    0.58336   1.00
H1       0.30076    0.78675    0.47237   1.00
H1       0.30604    0.77661    0.53306   1.00
C5       0.19587    0.70229    0.47835   1.00
C5       0.19261    0.70496    0.51998   1.00
H1       0.30241    0.78707    0.40451   1.00
H1       0.30395    0.77599    0.60091   1.00
H1       0.20815    0.71046    0.40052   1.00
H1       0.20095    0.71154    0.59848   1.00
C6       0.16903    0.67596    0.45515   1.00
C6       0.15805    0.68739    0.54119   1.00
H2       0.18613    0.66022    0.43345   1.00
H2       0.14775    0.70800    0.56310   1.00
H2       0.15773    0.65220    0.47286   1.00
H2       0.13270    0.68495    0.52228   1.00
C6       0.13395    0.69827    0.43606   1.00
C6       0.16702    0.64641    0.55942   1.00
H2       0.14442    0.72539    0.42292   1.00
H2       0.19547    0.64713    0.57383   1.00
C6       0.10940    0.67605    0.40459   1.00
C6       0.13674    0.62942    0.58911   1.00
H2       0.11432    0.70733    0.45949   1.00
H2       0.17027    0.62563    0.53546   1.00
C6       0.13370    0.66755    0.36735   1.00
C6       0.13494    0.65401    0.62708   1.00
C6       0.09279    0.63723    0.42074   1.00
C6       0.09537    0.62679    0.57107   1.00
C6       0.07445    0.70222    0.39245   1.00
C6       0.14969    0.58753    0.60054   1.00
H2       0.14637    0.69432    0.35558   1.00
H2       0.16383    0.65696    0.64020   1.00
H2       0.15745    0.64730    0.37330   1.00
H2       0.12370    0.68321    0.62154   1.00
H2       0.11564    0.65451    0.34459   1.00
H2       0.11581    0.64046    0.64863   1.00
H2       0.07348    0.62336    0.39955   1.00
H2       0.07511    0.61236    0.59098   1.00
H2       0.11617    0.61667    0.42725   1.00
H2       0.08374    0.65575    0.56494   1.00
H2       0.07623    0.64229    0.44745   1.00
H2       0.09596    0.61030    0.54385   1.00
H2       0.08461    0.72992    0.38042   1.00
H2       0.17865    0.58779    0.61383   1.00
H2       0.05653    0.68803    0.37025   1.00
H2       0.12954    0.57449    0.62149   1.00
H2       0.05571    0.70860    0.41739   1.00
H2       0.15076    0.56851    0.57502   1.00
C4       0.24654    0.98025    0.25331   1.00
C4       0.24501    1.02191    0.25305   1.00
C3       0.26942    0.95897    0.28075   1.00
C3       0.26289    1.04504    0.28262   1.00
C3       0.22458    0.95854    0.22524   1.00
C3       0.22491    1.04170    0.22230   1.00
C2       0.24815    0.89595    0.25510   1.00
C2       0.24358    1.10622    0.25153   1.00
C3       0.27010    0.91811    0.28180   1.00
C3       0.26241    1.08591    0.28184   1.00
C3       0.22589    0.91696    0.22744   1.00
C3       0.22528    1.08336    0.22246   1.00
H1       0.28675    0.97237    0.30076   1.00
H1       0.27661    1.03306    0.30604   1.00
C5       0.20229    0.97835    0.19587   1.00
C5       0.20496    1.01998    0.19261   1.00
H1       0.28707    0.90451    0.30241   1.00
H1       0.27599    1.10091    0.30395   1.00
H1       0.21046    0.90052    0.20815   1.00
H1       0.21154    1.09848    0.20095   1.00
C6       0.17596    0.95515    0.16903   1.00
C6       0.18739    1.04119    0.15805   1.00
H2       0.16022    0.93345    0.18613   1.00
H2       0.20800    1.06310    0.14775   1.00
H2       0.15220    0.97286    0.15773   1.00
H2       0.18495    1.02228    0.13270   1.00
C6       0.19827    0.93606    0.13395   1.00
C6       0.14641    1.05942    0.16702   1.00
H2       0.22539    0.92292    0.14442   1.00
H2       0.14713    1.07383    0.19547   1.00
C6       0.17605    0.90459    0.10940   1.00
C6       0.12942    1.08911    0.13674   1.00
H2       0.20733    0.95949    0.11432   1.00
H2       0.12563    1.03546    0.17027   1.00
C6       0.16755    0.86735    0.13370   1.00
C6       0.15401    1.12708    0.13494   1.00
C6       0.13723    0.92074    0.09279   1.00
C6       0.12679    1.07107    0.09537   1.00
C6       0.20222    0.89245    0.07445   1.00
C6       0.08753    1.10054    0.14969   1.00
H2       0.19432    0.85558    0.14637   1.00
H2       0.15696    1.14020    0.16383   1.00
H2       0.14730    0.87330    0.15745   1.00
H2       0.18321    1.12154    0.12370   1.00
H2       0.15451    0.84459    0.11564   1.00
H2       0.14046    1.14863    0.11581   1.00
H2       0.12336    0.89955    0.07348   1.00
H2       0.11236    1.09098    0.07511   1.00
H2       0.11667    0.92725    0.11617   1.00
H2       0.15575    1.06494    0.08374   1.00
H2       0.14229    0.94745    0.07623   1.00
H2       0.11030    1.04385    0.09596   1.00
H2       0.22992    0.88042    0.08461   1.00
H2       0.08779    1.11383    0.17865   1.00
H2       0.18803    0.87025    0.05653   1.00
H2       0.07449    1.12149    0.12954   1.00
H2       0.20860    0.91739    0.05571   1.00
H2       0.06851    1.07502    0.15076   1.00
C4       0.01975    0.75331    0.25346   1.00
C4       -0.02191   0.75305    0.25499   1.00
C3       0.04103    0.78075    0.23058   1.00
C3       -0.04504   0.78262    0.23711   1.00
C3       0.04146    0.72524    0.27542   1.00
C3       -0.04170   0.72230    0.27509   1.00
C2       0.10405    0.75510    0.25185   1.00
C2       -0.10622   0.75153    0.25642   1.00
C3       0.08189    0.78180    0.22990   1.00
C3       -0.08591   0.78184    0.23759   1.00
C3       0.08304    0.72744    0.27411   1.00
C3       -0.08336   0.72246    0.27472   1.00
H1       0.02763    0.80076    0.21325   1.00
H1       -0.03306   0.80604    0.22339   1.00
C5       0.02165    0.69587    0.29771   1.00
C5       -0.01998   0.69261    0.29504   1.00
H1       0.09549    0.80241    0.21293   1.00
H1       -0.10091   0.80395    0.22401   1.00
H1       0.09948    0.70815    0.28954   1.00
H1       -0.09848   0.70095    0.28846   1.00
C6       0.04485    0.66903    0.32404   1.00
C6       -0.04119   0.65805    0.31261   1.00
H2       0.06655    0.68613    0.33978   1.00
H2       -0.06310   0.64775    0.29200   1.00
H2       0.02714    0.65773    0.34780   1.00
H2       -0.02228   0.63270    0.31505   1.00
C6       0.06394    0.63395    0.30173   1.00
C6       -0.05942   0.66702    0.35359   1.00
H2       0.07708    0.64442    0.27461   1.00
H2       -0.07383   0.69547    0.35287   1.00
C6       0.09541    0.60940    0.32395   1.00
C6       -0.08911   0.63674    0.37058   1.00
H2       0.04051    0.61432    0.29267   1.00
H2       -0.03546   0.67027    0.37437   1.00
C6       0.13265    0.63370    0.33245   1.00
C6       -0.12708   0.63494    0.34599   1.00
C6       0.07926    0.59279    0.36277   1.00
C6       -0.07107   0.59537    0.37321   1.00
C6       0.10755    0.57445    0.29778   1.00
C6       -0.10054   0.64969    0.41247   1.00
H2       0.14442    0.64637    0.30568   1.00
H2       -0.14020   0.66383    0.34304   1.00
H2       0.12670    0.65745    0.35270   1.00
H2       -0.12154   0.62370    0.31679   1.00
H2       0.15541    0.61564    0.34549   1.00
H2       -0.14863   0.61581    0.35954   1.00
H2       0.10045    0.57348    0.37664   1.00
H2       -0.09098   0.57511    0.38764   1.00
H2       0.07275    0.61617    0.38333   1.00
H2       -0.06494   0.58374    0.34425   1.00
H2       0.05255    0.57623    0.35771   1.00
H2       -0.04385   0.59596    0.38970   1.00
H2       0.11958    0.58461    0.27008   1.00
H2       -0.11383   0.67865    0.41221   1.00
H2       0.12975    0.55653    0.31197   1.00
H2       -0.12149   0.62954    0.42551   1.00
H2       0.08261    0.55571    0.29140   1.00
H2       -0.07502   0.65076    0.43149   1.00
C4       0.48025    0.75331    0.24654   1.00
C4       0.52191    0.75305    0.24501   1.00
C3       0.45897    0.78075    0.26942   1.00
C3       0.54504    0.78262    0.26289   1.00
C3       0.45854    0.72524    0.22458   1.00
C3       0.54170    0.72230    0.22491   1.00
C2       0.39595    0.75510    0.24815   1.00
C2       0.60622    0.75153    0.24358   1.00
C3       0.41811    0.78180    0.27010   1.00
C3       0.58591    0.78184    0.26241   1.00
C3       0.41696    0.72744    0.22589   1.00
C3       0.58336    0.72246    0.22528   1.00
H1       0.47237    0.80076    0.28675   1.00
H1       0.53306    0.80604    0.27661   1.00
C5       0.47835    0.69587    0.20229   1.00
C5       0.51998    0.69261    0.20496   1.00
H1       0.40451    0.80241    0.28707   1.00
H1       0.60091    0.80395    0.27599   1.00
H1       0.40052    0.70815    0.21046   1.00
H1       0.59848    0.70095    0.21154   1.00
C6       0.45515    0.66903    0.17596   1.00
C6       0.54119    0.65805    0.18739   1.00
H2       0.43345    0.68613    0.16022   1.00
H2       0.56310    0.64775    0.20800   1.00
H2       0.47286    0.65773    0.15220   1.00
H2       0.52228    0.63270    0.18495   1.00
C6       0.43606    0.63395    0.19827   1.00
C6       0.55942    0.66702    0.14641   1.00
H2       0.42292    0.64442    0.22539   1.00
H2       0.57383    0.69547    0.14713   1.00
C6       0.40459    0.60940    0.17605   1.00
C6       0.58911    0.63674    0.12942   1.00
H2       0.45949    0.61432    0.20733   1.00
H2       0.53546    0.67027    0.12563   1.00
C6       0.36735    0.63370    0.16755   1.00
C6       0.62708    0.63494    0.15401   1.00
C6       0.42074    0.59279    0.13723   1.00
C6       0.57107    0.59537    0.12679   1.00
C6       0.39245    0.57445    0.20222   1.00
C6       0.60054    0.64969    0.08753   1.00
H2       0.35558    0.64637    0.19432   1.00
H2       0.64020    0.66383    0.15696   1.00
H2       0.37330    0.65745    0.14730   1.00
H2       0.62154    0.62370    0.18321   1.00
H2       0.34459    0.61564    0.15451   1.00
H2       0.64863    0.61581    0.14046   1.00
H2       0.39955    0.57348    0.12336   1.00
H2       0.59098    0.57511    0.11236   1.00
H2       0.42725    0.61617    0.11667   1.00
H2       0.56494    0.58374    0.15575   1.00
H2       0.44745    0.57623    0.14229   1.00
H2       0.54385    0.59596    0.11030   1.00
H2       0.38042    0.58461    0.22992   1.00
H2       0.61383    0.67865    0.08779   1.00
H2       0.37025    0.55653    0.18803   1.00
H2       0.62149    0.62954    0.07449   1.00
H2       0.41739    0.55571    0.20860   1.00
H2       0.57502    0.65076    0.06851   1.00
C4       0.25346    0.51975    0.25331   1.00
C4       0.25499    0.47809    0.25305   1.00
C3       0.23058    0.54103    0.28075   1.00
C3       0.23711    0.45496    0.28262   1.00
C3       0.27542    0.54146    0.22524   1.00
C3       0.27509    0.45830    0.22230   1.00
C2       0.25185    0.60405    0.25510   1.00
C2       0.25642    0.39378    0.25153   1.00
C3       0.22990    0.58189    0.28180   1.00
C3       0.23759    0.41409    0.28184   1.00
C3       0.27411    0.58304    0.22744   1.00
C3       0.27472    0.41664    0.22246   1.00
H1       0.21325    0.52763    0.30076   1.00
H1       0.22339    0.46694    0.30604   1.00
C5       0.29771    0.52165    0.19587   1.00
C5       0.29504    0.48002    0.19261   1.00
H1       0.21293    0.59549    0.30241   1.00
H1       0.22401    0.39909    0.30395   1.00
H1       0.28954    0.59948    0.20815   1.00
H1       0.28846    0.40152    0.20095   1.00
C6       0.32404    0.54485    0.16903   1.00
C6       0.31261    0.45881    0.15805   1.00
H2       0.33978    0.56655    0.18613   1.00
H2       0.29200    0.43690    0.14775   1.00
H2       0.34780    0.52714    0.15773   1.00
H2       0.31505    0.47772    0.13270   1.00
C6       0.30173    0.56394    0.13395   1.00
C6       0.35359    0.44058    0.16702   1.00
H2       0.27461    0.57708    0.14442   1.00
H2       0.35287    0.42617    0.19547   1.00
C6       0.32395    0.59541    0.10940   1.00
C6       0.37058    0.41089    0.13674   1.00
H2       0.29267    0.54051    0.11432   1.00
H2       0.37437    0.46454    0.17027   1.00
C6       0.33245    0.63265    0.13370   1.00
C6       0.34599    0.37292    0.13494   1.00
C6       0.36277    0.57926    0.09279   1.00
C6       0.37321    0.42893    0.09537   1.00
C6       0.29778    0.60755    0.07445   1.00
C6       0.41247    0.39946    0.14969   1.00
H2       0.30568    0.64442    0.14637   1.00
H2       0.34304    0.35980    0.16383   1.00
H2       0.35270    0.62670    0.15745   1.00
H2       0.31679    0.37846    0.12370   1.00
H2       0.34549    0.65541    0.11564   1.00
H2       0.35954    0.35137    0.11581   1.00
H2       0.37664    0.60045    0.07348   1.00
H2       0.38764    0.40902    0.07511   1.00
H2       0.38333    0.57275    0.11617   1.00
H2       0.34425    0.43506    0.08374   1.00
H2       0.35771    0.55255    0.07623   1.00
H2       0.38970    0.45615    0.09596   1.00
H2       0.27008    0.61958    0.08461   1.00
H2       0.41221    0.38617    0.17865   1.00
H2       0.31197    0.62975    0.05653   1.00
H2       0.42551    0.37851    0.12954   1.00
H2       0.29140    0.58261    0.05571   1.00
H2       0.43149    0.42498    0.15076   1.00
C4       0.25331    0.75346    0.01975   1.00
C4       0.25305    0.75499    -0.02191   1.00
C3       0.28075    0.73058    0.04103   1.00
C3       0.28262    0.73711    -0.04504   1.00
C3       0.22524    0.77542    0.04146   1.00
C3       0.22230    0.77509    -0.04170   1.00
C2       0.25510    0.75185    0.10405   1.00
C2       0.25153    0.75642    -0.10622   1.00
C3       0.28180    0.72990    0.08189   1.00
C3       0.28184    0.73759    -0.08591   1.00
C3       0.22744    0.77411    0.08304   1.00
C3       0.22246    0.77472    -0.08336   1.00
H1       0.30076    0.71325    0.02763   1.00
H1       0.30604    0.72339    -0.03306   1.00
C5       0.19587    0.79771    0.02165   1.00
C5       0.19261    0.79504    -0.01998   1.00
H1       0.30241    0.71293    0.09549   1.00
H1       0.30395    0.72401    -0.10091   1.00
H1       0.20815    0.78954    0.09948   1.00
H1       0.20095    0.78846    -0.09848   1.00
C6       0.16903    0.82404    0.04485   1.00
C6       0.15805    0.81261    -0.04119   1.00
H2       0.18613    0.83978    0.06655   1.00
H2       0.14775    0.79200    -0.06310   1.00
H2       0.15773    0.84780    0.02714   1.00
H2       0.13270    0.81505    -0.02228   1.00
C6       0.13395    0.80173    0.06394   1.00
C6       0.16702    0.85359    -0.05942   1.00
H2       0.14442    0.77461    0.07708   1.00
H2       0.19547    0.85287    -0.07383   1.00
C6       0.10940    0.82395    0.09541   1.00
C6       0.13674    0.87058    -0.08911   1.00
H2       0.11432    0.79267    0.04051   1.00
H2       0.17027    0.87437    -0.03546   1.00
C6       0.13370    0.83245    0.13265   1.00
C6       0.13494    0.84599    -0.12708   1.00
C6       0.09279    0.86277    0.07926   1.00
C6       0.09537    0.87321    -0.07107   1.00
C6       0.07445    0.79778    0.10755   1.00
C6       0.14969    0.91247    -0.10054   1.00
H2       0.14637    0.80568    0.14442   1.00
H2       0.16383    0.84304    -0.14020   1.00
H2       0.15745    0.85270    0.12670   1.00
H2       0.12370    0.81679    -0.12154   1.00
H2       0.11564    0.84549    0.15541   1.00
H2       0.11581    0.85954    -0.14863   1.00
H2       0.07348    0.87664    0.10045   1.00
H2       0.07511    0.88764    -0.09098   1.00
H2       0.11617    0.88333    0.07275   1.00
H2       0.08374    0.84425    -0.06494   1.00
H2       0.07623    0.85771    0.05255   1.00
H2       0.09596    0.88970    -0.04385   1.00
H2       0.08461    0.77008    0.11958   1.00
H2       0.17865    0.91221    -0.11383   1.00
H2       0.05653    0.81197    0.12975   1.00
H2       0.12954    0.92551    -0.12149   1.00
H2       0.05571    0.79140    0.08261   1.00
H2       0.15076    0.93149    -0.07502   1.00
C4       0.75331    0.24654    0.48025   1.00
C4       0.75305    0.24501    0.52191   1.00
C3       0.78075    0.26942    0.45897   1.00
C3       0.78262    0.26289    0.54504   1.00
C3       0.72524    0.22458    0.45854   1.00
C3       0.72230    0.22491    0.54170   1.00
C2       0.75510    0.24815    0.39595   1.00
C2       0.75153    0.24358    0.60622   1.00
C3       0.78180    0.27010    0.41811   1.00
C3       0.78184    0.26241    0.58591   1.00
C3       0.72744    0.22589    0.41696   1.00
C3       0.72246    0.22528    0.58336   1.00
H1       0.80076    0.28675    0.47237   1.00
H1       0.80604    0.27661    0.53306   1.00
C5       0.69587    0.20229    0.47835   1.00
C5       0.69261    0.20496    0.51998   1.00
H1       0.80241    0.28707    0.40451   1.00
H1       0.80395    0.27599    0.60091   1.00
H1       0.70815    0.21046    0.40052   1.00
H1       0.70095    0.21154    0.59848   1.00
C6       0.66903    0.17596    0.45515   1.00
C6       0.65805    0.18739    0.54119   1.00
H2       0.68613    0.16022    0.43345   1.00
H2       0.64775    0.20800    0.56310   1.00
H2       0.65773    0.15220    0.47286   1.00
H2       0.63270    0.18495    0.52228   1.00
C6       0.63395    0.19827    0.43606   1.00
C6       0.66702    0.14641    0.55942   1.00
H2       0.64442    0.22539    0.42292   1.00
H2       0.69547    0.14713    0.57383   1.00
C6       0.60940    0.17605    0.40459   1.00
C6       0.63674    0.12942    0.58911   1.00
H2       0.61432    0.20733    0.45949   1.00
H2       0.67027    0.12563    0.53546   1.00
C6       0.63370    0.16755    0.36735   1.00
C6       0.63494    0.15401    0.62708   1.00
C6       0.59279    0.13723    0.42074   1.00
C6       0.59537    0.12679    0.57107   1.00
C6       0.57445    0.20222    0.39245   1.00
C6       0.64969    0.08753    0.60054   1.00
H2       0.64637    0.19432    0.35558   1.00
H2       0.66383    0.15696    0.64020   1.00
H2       0.65745    0.14730    0.37330   1.00
H2       0.62370    0.18321    0.62154   1.00
H2       0.61564    0.15451    0.34459   1.00
H2       0.61581    0.14046    0.64863   1.00
H2       0.57348    0.12336    0.39955   1.00
H2       0.57511    0.11236    0.59098   1.00
H2       0.61617    0.11667    0.42725   1.00
H2       0.58374    0.15575    0.56494   1.00
H2       0.57623    0.14229    0.44745   1.00
H2       0.59596    0.11030    0.54385   1.00
H2       0.58461    0.22992    0.38042   1.00
H2       0.67865    0.08779    0.61383   1.00
H2       0.55653    0.18803    0.37025   1.00
H2       0.62954    0.07449    0.62149   1.00
H2       0.55571    0.20860    0.41739   1.00
H2       0.65076    0.06851    0.57502   1.00
C4       0.74654    0.48025    0.25331   1.00
C4       0.74501    0.52191    0.25305   1.00
C3       0.76942    0.45897    0.28075   1.00
C3       0.76289    0.54504    0.28262   1.00
C3       0.72458    0.45854    0.22524   1.00
C3       0.72491    0.54170    0.22230   1.00
C2       0.74815    0.39595    0.25510   1.00
C2       0.74358    0.60622    0.25153   1.00
C3       0.77010    0.41811    0.28180   1.00
C3       0.76241    0.58591    0.28184   1.00
C3       0.72589    0.41696    0.22744   1.00
C3       0.72528    0.58336    0.22246   1.00
H1       0.78675    0.47237    0.30076   1.00
H1       0.77661    0.53306    0.30604   1.00
C5       0.70229    0.47835    0.19587   1.00
C5       0.70496    0.51998    0.19261   1.00
H1       0.78707    0.40451    0.30241   1.00
H1       0.77599    0.60091    0.30395   1.00
H1       0.71046    0.40052    0.20815   1.00
H1       0.71154    0.59848    0.20095   1.00
C6       0.67596    0.45515    0.16903   1.00
C6       0.68739    0.54119    0.15805   1.00
H2       0.66022    0.43345    0.18613   1.00
H2       0.70800    0.56310    0.14775   1.00
H2       0.65220    0.47286    0.15773   1.00
H2       0.68495    0.52228    0.13270   1.00
C6       0.69827    0.43606    0.13395   1.00
C6       0.64641    0.55942    0.16702   1.00
H2       0.72539    0.42292    0.14442   1.00
H2       0.64713    0.57383    0.19547   1.00
C6       0.67605    0.40459    0.10940   1.00
C6       0.62942    0.58911    0.13674   1.00
H2       0.70733    0.45949    0.11432   1.00
H2       0.62563    0.53546    0.17027   1.00
C6       0.66755    0.36735    0.13370   1.00
C6       0.65401    0.62708    0.13494   1.00
C6       0.63723    0.42074    0.09279   1.00
C6       0.62679    0.57107    0.09537   1.00
C6       0.70222    0.39245    0.07445   1.00
C6       0.58753    0.60054    0.14969   1.00
H2       0.69432    0.35558    0.14637   1.00
H2       0.65696    0.64020    0.16383   1.00
H2       0.64730    0.37330    0.15745   1.00
H2       0.68321    0.62154    0.12370   1.00
H2       0.65451    0.34459    0.11564   1.00
H2       0.64046    0.64863    0.11581   1.00
H2       0.62336    0.39955    0.07348   1.00
H2       0.61236    0.59098    0.07511   1.00
H2       0.61667    0.42725    0.11617   1.00
H2       0.65575    0.56494    0.08374   1.00
H2       0.64229    0.44745    0.07623   1.00
H2       0.61030    0.54385    0.09596   1.00
H2       0.72992    0.38042    0.08461   1.00
H2       0.58779    0.61383    0.17865   1.00
H2       0.68803    0.37025    0.05653   1.00
H2       0.57449    0.62149    0.12954   1.00
H2       0.70860    0.41739    0.05571   1.00
H2       0.56851    0.57502    0.15076   1.00
C4       0.51975    0.25331    0.25346   1.00
C4       0.47809    0.25305    0.25499   1.00
C3       0.54103    0.28075    0.23058   1.00
C3       0.45496    0.28262    0.23711   1.00
C3       0.54146    0.22524    0.27542   1.00
C3       0.45830    0.22230    0.27509   1.00
C2       0.60405    0.25510    0.25185   1.00
C2       0.39378    0.25153    0.25642   1.00
C3       0.58189    0.28180    0.22990   1.00
C3       0.41409    0.28184    0.23759   1.00
C3       0.58304    0.22744    0.27411   1.00
C3       0.41664    0.22246    0.27472   1.00
H1       0.52763    0.30076    0.21325   1.00
H1       0.46694    0.30604    0.22339   1.00
C5       0.52165    0.19587    0.29771   1.00
C5       0.48002    0.19261    0.29504   1.00
H1       0.59549    0.30241    0.21293   1.00
H1       0.39909    0.30395    0.22401   1.00
H1       0.59948    0.20815    0.28954   1.00
H1       0.40152    0.20095    0.28846   1.00
C6       0.54485    0.16903    0.32404   1.00
C6       0.45881    0.15805    0.31261   1.00
H2       0.56655    0.18613    0.33978   1.00
H2       0.43690    0.14775    0.29200   1.00
H2       0.52714    0.15773    0.34780   1.00
H2       0.47772    0.13270    0.31505   1.00
C6       0.56394    0.13395    0.30173   1.00
C6       0.44058    0.16702    0.35359   1.00
H2       0.57708    0.14442    0.27461   1.00
H2       0.42617    0.19547    0.35287   1.00
C6       0.59541    0.10940    0.32395   1.00
C6       0.41089    0.13674    0.37058   1.00
H2       0.54051    0.11432    0.29267   1.00
H2       0.46454    0.17027    0.37437   1.00
C6       0.63265    0.13370    0.33245   1.00
C6       0.37292    0.13494    0.34599   1.00
C6       0.57926    0.09279    0.36277   1.00
C6       0.42893    0.09537    0.37321   1.00
C6       0.60755    0.07445    0.29778   1.00
C6       0.39946    0.14969    0.41247   1.00
H2       0.64442    0.14637    0.30568   1.00
H2       0.35980    0.16383    0.34304   1.00
H2       0.62670    0.15745    0.35270   1.00
H2       0.37846    0.12370    0.31679   1.00
H2       0.65541    0.11564    0.34549   1.00
H2       0.35137    0.11581    0.35954   1.00
H2       0.60045    0.07348    0.37664   1.00
H2       0.40902    0.07511    0.38764   1.00
H2       0.57275    0.11617    0.38333   1.00
H2       0.43506    0.08374    0.34425   1.00
H2       0.55255    0.07623    0.35771   1.00
H2       0.45615    0.09596    0.38970   1.00
H2       0.61958    0.08461    0.27008   1.00
H2       0.38617    0.17865    0.41221   1.00
H2       0.62975    0.05653    0.31197   1.00
H2       0.37851    0.12954    0.42551   1.00
H2       0.58261    0.05571    0.29140   1.00
H2       0.42498    0.15076    0.43149   1.00
C4       0.98025    0.25331    0.24654   1.00
C4       1.02191    0.25305    0.24501   1.00
C3       0.95897    0.28075    0.26942   1.00
C3       1.04504    0.28262    0.26289   1.00
C3       0.95854    0.22524    0.22458   1.00
C3       1.04170    0.22230    0.22491   1.00
C2       0.89595    0.25510    0.24815   1.00
C2       1.10622    0.25153    0.24358   1.00
C3       0.91811    0.28180    0.27010   1.00
C3       1.08591    0.28184    0.26241   1.00
C3       0.91696    0.22744    0.22589   1.00
C3       1.08336    0.22246    0.22528   1.00
H1       0.97237    0.30076    0.28675   1.00
H1       1.03306    0.30604    0.27661   1.00
C5       0.97835    0.19587    0.20229   1.00
C5       1.01998    0.19261    0.20496   1.00
H1       0.90451    0.30241    0.28707   1.00
H1       1.10091    0.30395    0.27599   1.00
H1       0.90052    0.20815    0.21046   1.00
H1       1.09848    0.20095    0.21154   1.00
C6       0.95515    0.16903    0.17596   1.00
C6       1.04119    0.15805    0.18739   1.00
H2       0.93345    0.18613    0.16022   1.00
H2       1.06310    0.14775    0.20800   1.00
H2       0.97286    0.15773    0.15220   1.00
H2       1.02228    0.13270    0.18495   1.00
C6       0.93606    0.13395    0.19827   1.00
C6       1.05942    0.16702    0.14641   1.00
H2       0.92292    0.14442    0.22539   1.00
H2       1.07383    0.19547    0.14713   1.00
C6       0.90459    0.10940    0.17605   1.00
C6       1.08911    0.13674    0.12942   1.00
H2       0.95949    0.11432    0.20733   1.00
H2       1.03546    0.17027    0.12563   1.00
C6       0.86735    0.13370    0.16755   1.00
C6       1.12708    0.13494    0.15401   1.00
C6       0.92074    0.09279    0.13723   1.00
C6       1.07107    0.09537    0.12679   1.00
C6       0.89245    0.07445    0.20222   1.00
C6       1.10054    0.14969    0.08753   1.00
H2       0.85558    0.14637    0.19432   1.00
H2       1.14020    0.16383    0.15696   1.00
H2       0.87330    0.15745    0.14730   1.00
H2       1.12154    0.12370    0.18321   1.00
H2       0.84459    0.11564    0.15451   1.00
H2       1.14863    0.11581    0.14046   1.00
H2       0.89955    0.07348    0.12336   1.00
H2       1.09098    0.07511    0.11236   1.00
H2       0.92725    0.11617    0.11667   1.00
H2       1.06494    0.08374    0.15575   1.00
H2       0.94745    0.07623    0.14229   1.00
H2       1.04385    0.09596    0.11030   1.00
H2       0.88042    0.08461    0.22992   1.00
H2       1.11383    0.17865    0.08779   1.00
H2       0.87025    0.05653    0.18803   1.00
H2       1.12149    0.12954    0.07449   1.00
H2       0.91739    0.05571    0.20860   1.00
H2       1.07502    0.15076    0.06851   1.00
C4       0.75346    0.01975    0.25331   1.00
C4       0.75499    -0.02191   0.25305   1.00
C3       0.73058    0.04103    0.28075   1.00
C3       0.73711    -0.04504   0.28262   1.00
C3       0.77542    0.04146    0.22524   1.00
C3       0.77509    -0.04170   0.22230   1.00
C2       0.75185    0.10405    0.25510   1.00
C2       0.75642    -0.10622   0.25153   1.00
C3       0.72990    0.08189    0.28180   1.00
C3       0.73759    -0.08591   0.28184   1.00
C3       0.77411    0.08304    0.22744   1.00
C3       0.77472    -0.08336   0.22246   1.00
H1       0.71325    0.02763    0.30076   1.00
H1       0.72339    -0.03306   0.30604   1.00
C5       0.79771    0.02165    0.19587   1.00
C5       0.79504    -0.01998   0.19261   1.00
H1       0.71293    0.09549    0.30241   1.00
H1       0.72401    -0.10091   0.30395   1.00
H1       0.78954    0.09948    0.20815   1.00
H1       0.78846    -0.09848   0.20095   1.00
C6       0.82404    0.04485    0.16903   1.00
C6       0.81261    -0.04119   0.15805   1.00
H2       0.83978    0.06655    0.18613   1.00
H2       0.79200    -0.06310   0.14775   1.00
H2       0.84780    0.02714    0.15773   1.00
H2       0.81505    -0.02228   0.13270   1.00
C6       0.80173    0.06394    0.13395   1.00
C6       0.85359    -0.05942   0.16702   1.00
H2       0.77461    0.07708    0.14442   1.00
H2       0.85287    -0.07383   0.19547   1.00
C6       0.82395    0.09541    0.10940   1.00
C6       0.87058    -0.08911   0.13674   1.00
H2       0.79267    0.04051    0.11432   1.00
H2       0.87437    -0.03546   0.17027   1.00
C6       0.83245    0.13265    0.13370   1.00
C6       0.84599    -0.12708   0.13494   1.00
C6       0.86277    0.07926    0.09279   1.00
C6       0.87321    -0.07107   0.09537   1.00
C6       0.79778    0.10755    0.07445   1.00
C6       0.91247    -0.10054   0.14969   1.00
H2       0.80568    0.14442    0.14637   1.00
H2       0.84304    -0.14020   0.16383   1.00
H2       0.85270    0.12670    0.15745   1.00
H2       0.81679    -0.12154   0.12370   1.00
H2       0.84549    0.15541    0.11564   1.00
H2       0.85954    -0.14863   0.11581   1.00
H2       0.87664    0.10045    0.07348   1.00
H2       0.88764    -0.09098   0.07511   1.00
H2       0.88333    0.07275    0.11617   1.00
H2       0.84425    -0.06494   0.08374   1.00
H2       0.85771    0.05255    0.07623   1.00
H2       0.88970    -0.04385   0.09596   1.00
H2       0.77008    0.11958    0.08461   1.00
H2       0.91221    -0.11383   0.17865   1.00
H2       0.81197    0.12975    0.05653   1.00
H2       0.92551    -0.12149   0.12954   1.00
H2       0.79140    0.08261    0.05571   1.00
H2       0.93149    -0.07502   0.15076   1.00
C4       0.75331    0.25346    0.01975   1.00
C4       0.75305    0.25499    -0.02191   1.00
C3       0.78075    0.23058    0.04103   1.00
C3       0.78262    0.23711    -0.04504   1.00
C3       0.72524    0.27542    0.04146   1.00
C3       0.72230    0.27509    -0.04170   1.00
C2       0.75510    0.25185    0.10405   1.00
C2       0.75153    0.25642    -0.10622   1.00
C3       0.78180    0.22990    0.08189   1.00
C3       0.78184    0.23759    -0.08591   1.00
C3       0.72744    0.27411    0.08304   1.00
C3       0.72246    0.27472    -0.08336   1.00
H1       0.80076    0.21325    0.02763   1.00
H1       0.80604    0.22339    -0.03306   1.00
C5       0.69587    0.29771    0.02165   1.00
C5       0.69261    0.29504    -0.01998   1.00
H1       0.80241    0.21293    0.09549   1.00
H1       0.80395    0.22401    -0.10091   1.00
H1       0.70815    0.28954    0.09948   1.00
H1       0.70095    0.28846    -0.09848   1.00
C6       0.66903    0.32404    0.04485   1.00
C6       0.65805    0.31261    -0.04119   1.00
H2       0.68613    0.33978    0.06655   1.00
H2       0.64775    0.29200    -0.06310   1.00
H2       0.65773    0.34780    0.02714   1.00
H2       0.63270    0.31505    -0.02228   1.00
C6       0.63395    0.30173    0.06394   1.00
C6       0.66702    0.35359    -0.05942   1.00
H2       0.64442    0.27461    0.07708   1.00
H2       0.69547    0.35287    -0.07383   1.00
C6       0.60940    0.32395    0.09541   1.00
C6       0.63674    0.37058    -0.08911   1.00
H2       0.61432    0.29267    0.04051   1.00
H2       0.67027    0.37437    -0.03546   1.00
C6       0.63370    0.33245    0.13265   1.00
C6       0.63494    0.34599    -0.12708   1.00
C6       0.59279    0.36277    0.07926   1.00
C6       0.59537    0.37321    -0.07107   1.00
C6       0.57445    0.29778    0.10755   1.00
C6       0.64969    0.41247    -0.10054   1.00
H2       0.64637    0.30568    0.14442   1.00
H2       0.66383    0.34304    -0.14020   1.00
H2       0.65745    0.35270    0.12670   1.00
H2       0.62370    0.31679    -0.12154   1.00
H2       0.61564    0.34549    0.15541   1.00
H2       0.61581    0.35954    -0.14863   1.00
H2       0.57348    0.37664    0.10045   1.00
H2       0.57511    0.38764    -0.09098   1.00
H2       0.61617    0.38333    0.07275   1.00
H2       0.58374    0.34425    -0.06494   1.00
H2       0.57623    0.35771    0.05255   1.00
H2       0.59596    0.38970    -0.04385   1.00
H2       0.58461    0.27008    0.11958   1.00
H2       0.67865    0.41221    -0.11383   1.00
H2       0.55653    0.31197    0.12975   1.00
H2       0.62954    0.42551    -0.12149   1.00
H2       0.55571    0.29140    0.08261   1.00
H2       0.65076    0.43149    -0.07502   1.00
C4       1.00331    0.99654    1.23025   1.00
C4       1.00305    0.99501    1.27191   1.00
C3       1.03075    1.01942    1.20897   1.00
C3       1.03262    1.01289    1.29504   1.00
C3       0.97524    0.97458    1.20854   1.00
C3       0.97230    0.97491    1.29170   1.00
C2       1.00510    0.99815    1.14595   1.00
C2       1.00153    0.99358    1.35622   1.00
C3       1.03180    1.02010    1.16811   1.00
C3       1.03184    1.01241    1.33591   1.00
C3       0.97744    0.97589    1.16696   1.00
C3       0.97246    0.97528    1.33336   1.00
H1       1.05076    1.03675    1.22237   1.00
H1       1.05604    1.02661    1.28306   1.00
C5       0.94587    0.95229    1.22835   1.00
C5       0.94261    0.95496    1.26998   1.00
H1       1.05241    1.03707    1.15451   1.00
H1       1.05395    1.02599    1.35091   1.00
H1       0.95815    0.96046    1.15052   1.00
H1       0.95095    0.96154    1.34848   1.00
C6       0.91903    0.92596    1.20515   1.00
C6       0.90805    0.93739    1.29119   1.00
H2       0.93613    0.91022    1.18345   1.00
H2       0.89775    0.95800    1.31310   1.00
H2       0.90773    0.90220    1.22286   1.00
H2       0.88270    0.93495    1.27228   1.00
C6       0.88395    0.94827    1.18606   1.00
C6       0.91702    0.89641    1.30942   1.00
H2       0.89442    0.97539    1.17292   1.00
H2       0.94547    0.89713    1.32383   1.00
C6       0.85940    0.92605    1.15459   1.00
C6       0.88674    0.87942    1.33911   1.00
H2       0.86432    0.95733    1.20949   1.00
H2       0.92027    0.87563    1.28546   1.00
C6       0.88370    0.91755    1.11735   1.00
C6       0.88494    0.90401    1.37708   1.00
C6       0.84279    0.88723    1.17074   1.00
C6       0.84537    0.87679    1.32107   1.00
C6       0.82445    0.95222    1.14245   1.00
C6       0.89969    0.83753    1.35054   1.00
H2       0.89637    0.94432    1.10558   1.00
H2       0.91383    0.90696    1.39020   1.00
H2       0.90745    0.89730    1.12330   1.00
H2       0.87370    0.93321    1.37154   1.00
H2       0.86564    0.90451    1.09459   1.00
H2       0.86581    0.89046    1.39863   1.00
H2       0.82348    0.87336    1.14955   1.00
H2       0.82511    0.86236    1.34098   1.00
H2       0.86617    0.86667    1.17725   1.00
H2       0.83374    0.90575    1.31494   1.00
H2       0.82623    0.89229    1.19745   1.00
H2       0.84596    0.86030    1.29385   1.00
H2       0.83461    0.97992    1.13042   1.00
H2       0.92865    0.83779    1.36383   1.00
H2       0.80653    0.93803    1.12025   1.00
H2       0.87954    0.82449    1.37149   1.00
H2       0.80571    0.95860    1.16739   1.00
H2       0.90076    0.81851    1.32502   1.00
C4       0.99654    1.23025    1.00331   1.00
C4       0.99501    1.27191    1.00305   1.00
C3       1.01942    1.20897    1.03075   1.00
C3       1.01289    1.29504    1.03262   1.00
C3       0.97458    1.20854    0.97524   1.00
C3       0.97491    1.29170    0.97230   1.00
C2       0.99815    1.14595    1.00510   1.00
C2       0.99358    1.35622    1.00153   1.00
C3       1.02010    1.16811    1.03180   1.00
C3       1.01241    1.33591    1.03184   1.00
C3       0.97589    1.16696    0.97744   1.00
C3       0.97528    1.33336    0.97246   1.00
H1       1.03675    1.22237    1.05076   1.00
H1       1.02661    1.28306    1.05604   1.00
C5       0.95229    1.22835    0.94587   1.00
C5       0.95496    1.26998    0.94261   1.00
H1       1.03707    1.15451    1.05241   1.00
H1       1.02599    1.35091    1.05395   1.00
H1       0.96046    1.15052    0.95815   1.00
H1       0.96154    1.34848    0.95095   1.00
C6       0.92596    1.20515    0.91903   1.00
C6       0.93739    1.29119    0.90805   1.00
H2       0.91022    1.18345    0.93613   1.00
H2       0.95800    1.31310    0.89775   1.00
H2       0.90220    1.22286    0.90773   1.00
H2       0.93495    1.27228    0.88270   1.00
C6       0.94827    1.18606    0.88395   1.00
C6       0.89641    1.30942    0.91702   1.00
H2       0.97539    1.17292    0.89442   1.00
H2       0.89713    1.32383    0.94547   1.00
C6       0.92605    1.15459    0.85940   1.00
C6       0.87942    1.33911    0.88674   1.00
H2       0.95733    1.20949    0.86432   1.00
H2       0.87563    1.28546    0.92027   1.00
C6       0.91755    1.11735    0.88370   1.00
C6       0.90401    1.37708    0.88494   1.00
C6       0.88723    1.17074    0.84279   1.00
C6       0.87679    1.32107    0.84537   1.00
C6       0.95222    1.14245    0.82445   1.00
C6       0.83753    1.35054    0.89969   1.00
H2       0.94432    1.10558    0.89637   1.00
H2       0.90696    1.39020    0.91383   1.00
H2       0.89730    1.12330    0.90745   1.00
H2       0.93321    1.37154    0.87370   1.00
H2       0.90451    1.09459    0.86564   1.00
H2       0.89046    1.39863    0.86581   1.00
H2       0.87336    1.14955    0.82348   1.00
H2       0.86236    1.34098    0.82511   1.00
H2       0.86667    1.17725    0.86617   1.00
H2       0.90575    1.31494    0.83374   1.00
H2       0.89229    1.19745    0.82623   1.00
H2       0.86030    1.29385    0.84596   1.00
H2       0.97992    1.13042    0.83461   1.00
H2       0.83779    1.36383    0.92865   1.00
H2       0.93803    1.12025    0.80653   1.00
H2       0.82449    1.37149    0.87954   1.00
H2       0.95860    1.16739    0.80571   1.00
H2       0.81851    1.32502    0.90076   1.00
C4       0.76975    1.00331    1.00346   1.00
C4       0.72809    1.00305    1.00499   1.00
C3       0.79103    1.03075    0.98058   1.00
C3       0.70496    1.03262    0.98711   1.00
C3       0.79146    0.97524    1.02542   1.00
C3       0.70830    0.97230    1.02509   1.00
C2       0.85405    1.00510    1.00185   1.00
C2       0.64378    1.00153    1.00642   1.00
C3       0.83189    1.03180    0.97990   1.00
C3       0.66409    1.03184    0.98759   1.00
C3       0.83304    0.97744    1.02411   1.00
C3       0.66664    0.97246    1.02472   1.00
H1       0.77763    1.05076    0.96325   1.00
H1       0.71694    1.05604    0.97339   1.00
C5       0.77165    0.94587    1.04771   1.00
C5       0.73002    0.94261    1.04504   1.00
H1       0.84549    1.05241    0.96293   1.00
H1       0.64909    1.05395    0.97401   1.00
H1       0.84948    0.95815    1.03954   1.00
H1       0.65152    0.95095    1.03846   1.00
C6       0.79485    0.91903    1.07404   1.00
C6       0.70881    0.90805    1.06261   1.00
H2       0.81655    0.93613    1.08978   1.00
H2       0.68690    0.89775    1.04200   1.00
H2       0.77714    0.90773    1.09780   1.00
H2       0.72772    0.88270    1.06505   1.00
C6       0.81394    0.88395    1.05173   1.00
C6       0.69058    0.91702    1.10359   1.00
H2       0.82708    0.89442    1.02461   1.00
H2       0.67617    0.94547    1.10287   1.00
C6       0.84541    0.85940    1.07395   1.00
C6       0.66089    0.88674    1.12058   1.00
H2       0.79051    0.86432    1.04267   1.00
H2       0.71454    0.92027    1.12437   1.00
C6       0.88265    0.88370    1.08245   1.00
C6       0.62292    0.88494    1.09599   1.00
C6       0.82926    0.84279    1.11277   1.00
C6       0.67893    0.84537    1.12321   1.00
C6       0.85755    0.82445    1.04778   1.00
C6       0.64946    0.89969    1.16247   1.00
H2       0.89442    0.89637    1.05568   1.00
H2       0.60980    0.91383    1.09304   1.00
H2       0.87670    0.90745    1.10270   1.00
H2       0.62846    0.87370    1.06679   1.00
H2       0.90541    0.86564    1.09549   1.00
H2       0.60137    0.86581    1.10954   1.00
H2       0.85045    0.82348    1.12664   1.00
H2       0.65902    0.82511    1.13764   1.00
H2       0.82275    0.86617    1.13333   1.00
H2       0.68506    0.83374    1.09425   1.00
H2       0.80255    0.82623    1.10771   1.00
H2       0.70615    0.84596    1.13970   1.00
H2       0.86958    0.83461    1.02008   1.00
H2       0.63617    0.92865    1.16221   1.00
H2       0.87975    0.80653    1.06197   1.00
H2       0.62851    0.87954    1.17551   1.00
H2       0.83261    0.80571    1.04140   1.00
H2       0.67498    0.90076    1.18149   1.00
C4       1.23025    1.00331    0.99654   1.00
C4       1.27191    1.00305    0.99501   1.00
C3       1.20897    1.03075    1.01942   1.00
C3       1.29504    1.03262    1.01289   1.00
C3       1.20854    0.97524    0.97458   1.00
C3       1.29170    0.97230    0.97491   1.00
C2       1.14595    1.00510    0.99815   1.00
C2       1.35622    1.00153    0.99358   1.00
C3       1.16811    1.03180    1.02010   1.00
C3       1.33591    1.03184    1.01241   1.00
C3       1.16696    0.97744    0.97589   1.00
C3       1.33336    0.97246    0.97528   1.00
H1       1.22237    1.05076    1.03675   1.00
H1       1.28306    1.05604    1.02661   1.00
C5       1.22835    0.94587    0.95229   1.00
C5       1.26998    0.94261    0.95496   1.00
H1       1.15451    1.05241    1.03707   1.00
H1       1.35091    1.05395    1.02599   1.00
H1       1.15052    0.95815    0.96046   1.00
H1       1.34848    0.95095    0.96154   1.00
C6       1.20515    0.91903    0.92596   1.00
C6       1.29119    0.90805    0.93739   1.00
H2       1.18345    0.93613    0.91022   1.00
H2       1.31310    0.89775    0.95800   1.00
H2       1.22286    0.90773    0.90220   1.00
H2       1.27228    0.88270    0.93495   1.00
C6       1.18606    0.88395    0.94827   1.00
C6       1.30942    0.91702    0.89641   1.00
H2       1.17292    0.89442    0.97539   1.00
H2       1.32383    0.94547    0.89713   1.00
C6       1.15459    0.85940    0.92605   1.00
C6       1.33911    0.88674    0.87942   1.00
H2       1.20949    0.86432    0.95733   1.00
H2       1.28546    0.92027    0.87563   1.00
C6       1.11735    0.88370    0.91755   1.00
C6       1.37708    0.88494    0.90401   1.00
C6       1.17074    0.84279    0.88723   1.00
C6       1.32107    0.84537    0.87679   1.00
C6       1.14245    0.82445    0.95222   1.00
C6       1.35054    0.89969    0.83753   1.00
H2       1.10558    0.89637    0.94432   1.00
H2       1.39020    0.91383    0.90696   1.00
H2       1.12330    0.90745    0.89730   1.00
H2       1.37154    0.87370    0.93321   1.00
H2       1.09459    0.86564    0.90451   1.00
H2       1.39863    0.86581    0.89046   1.00
H2       1.14955    0.82348    0.87336   1.00
H2       1.34098    0.82511    0.86236   1.00
H2       1.17725    0.86617    0.86667   1.00
H2       1.31494    0.83374    0.90575   1.00
H2       1.19745    0.82623    0.89229   1.00
H2       1.29385    0.84596    0.86030   1.00
H2       1.13042    0.83461    0.97992   1.00
H2       1.36383    0.92865    0.83779   1.00
H2       1.12025    0.80653    0.93803   1.00
H2       1.37149    0.87954    0.82449   1.00
H2       1.16739    0.80571    0.95860   1.00
H2       1.32502    0.90076    0.81851   1.00
C4       1.00346    0.76975    1.00331   1.00
C4       1.00499    0.72809    1.00305   1.00
C3       0.98058    0.79103    1.03075   1.00
C3       0.98711    0.70496    1.03262   1.00
C3       1.02542    0.79146    0.97524   1.00
C3       1.02509    0.70830    0.97230   1.00
C2       1.00185    0.85405    1.00510   1.00
C2       1.00642    0.64378    1.00153   1.00
C3       0.97990    0.83189    1.03180   1.00
C3       0.98759    0.66409    1.03184   1.00
C3       1.02411    0.83304    0.97744   1.00
C3       1.02472    0.66664    0.97246   1.00
H1       0.96325    0.77763    1.05076   1.00
H1       0.97339    0.71694    1.05604   1.00
C5       1.04771    0.77165    0.94587   1.00
C5       1.04504    0.73002    0.94261   1.00
H1       0.96293    0.84549    1.05241   1.00
H1       0.97401    0.64909    1.05395   1.00
H1       1.03954    0.84948    0.95815   1.00
H1       1.03846    0.65152    0.95095   1.00
C6       1.07404    0.79485    0.91903   1.00
C6       1.06261    0.70881    0.90805   1.00
H2       1.08978    0.81655    0.93613   1.00
H2       1.04200    0.68690    0.89775   1.00
H2       1.09780    0.77714    0.90773   1.00
H2       1.06505    0.72772    0.88270   1.00
C6       1.05173    0.81394    0.88395   1.00
C6       1.10359    0.69058    0.91702   1.00
H2       1.02461    0.82708    0.89442   1.00
H2       1.10287    0.67617    0.94547   1.00
C6       1.07395    0.84541    0.85940   1.00
C6       1.12058    0.66089    0.88674   1.00
H2       1.04267    0.79051    0.86432   1.00
H2       1.12437    0.71454    0.92027   1.00
C6       1.08245    0.88265    0.88370   1.00
C6       1.09599    0.62292    0.88494   1.00
C6       1.11277    0.82926    0.84279   1.00
C6       1.12321    0.67893    0.84537   1.00
C6       1.04778    0.85755    0.82445   1.00
C6       1.16247    0.64946    0.89969   1.00
H2       1.05568    0.89442    0.89637   1.00
H2       1.09304    0.60980    0.91383   1.00
H2       1.10270    0.87670    0.90745   1.00
H2       1.06679    0.62846    0.87370   1.00
H2       1.09549    0.90541    0.86564   1.00
H2       1.10954    0.60137    0.86581   1.00
H2       1.12664    0.85045    0.82348   1.00
H2       1.13764    0.65902    0.82511   1.00
H2       1.13333    0.82275    0.86617   1.00
H2       1.09425    0.68506    0.83374   1.00
H2       1.10771    0.80255    0.82623   1.00
H2       1.13970    0.70615    0.84596   1.00
H2       1.02008    0.86958    0.83461   1.00
H2       1.16221    0.63617    0.92865   1.00
H2       1.06197    0.87975    0.80653   1.00
H2       1.17551    0.62851    0.87954   1.00
H2       1.04140    0.83261    0.80571   1.00
H2       1.18149    0.67498    0.90076   1.00
C4       1.00331    1.00346    0.76975   1.00
C4       1.00305    1.00499    0.72809   1.00
C3       1.03075    0.98058    0.79103   1.00
C3       1.03262    0.98711    0.70496   1.00
C3       0.97524    1.02542    0.79146   1.00
C3       0.97230    1.02509    0.70830   1.00
C2       1.00510    1.00185    0.85405   1.00
C2       1.00153    1.00642    0.64378   1.00
C3       1.03180    0.97990    0.83189   1.00
C3       1.03184    0.98759    0.66409   1.00
C3       0.97744    1.02411    0.83304   1.00
C3       0.97246    1.02472    0.66664   1.00
H1       1.05076    0.96325    0.77763   1.00
H1       1.05604    0.97339    0.71694   1.00
C5       0.94587    1.04771    0.77165   1.00
C5       0.94261    1.04504    0.73002   1.00
H1       1.05241    0.96293    0.84549   1.00
H1       1.05395    0.97401    0.64909   1.00
H1       0.95815    1.03954    0.84948   1.00
H1       0.95095    1.03846    0.65152   1.00
C6       0.91903    1.07404    0.79485   1.00
C6       0.90805    1.06261    0.70881   1.00
H2       0.93613    1.08978    0.81655   1.00
H2       0.89775    1.04200    0.68690   1.00
H2       0.90773    1.09780    0.77714   1.00
H2       0.88270    1.06505    0.72772   1.00
C6       0.88395    1.05173    0.81394   1.00
C6       0.91702    1.10359    0.69058   1.00
H2       0.89442    1.02461    0.82708   1.00
H2       0.94547    1.10287    0.67617   1.00
C6       0.85940    1.07395    0.84541   1.00
C6       0.88674    1.12058    0.66089   1.00
H2       0.86432    1.04267    0.79051   1.00
H2       0.92027    1.12437    0.71454   1.00
C6       0.88370    1.08245    0.88265   1.00
C6       0.88494    1.09599    0.62292   1.00
C6       0.84279    1.11277    0.82926   1.00
C6       0.84537    1.12321    0.67893   1.00
C6       0.82445    1.04778    0.85755   1.00
C6       0.89969    1.16247    0.64946   1.00
H2       0.89637    1.05568    0.89442   1.00
H2       0.91383    1.09304    0.60980   1.00
H2       0.90745    1.10270    0.87670   1.00
H2       0.87370    1.06679    0.62846   1.00
H2       0.86564    1.09549    0.90541   1.00
H2       0.86581    1.10954    0.60137   1.00
H2       0.82348    1.12664    0.85045   1.00
H2       0.82511    1.13764    0.65902   1.00
H2       0.86617    1.13333    0.82275   1.00
H2       0.83374    1.09425    0.68506   1.00
H2       0.82623    1.10771    0.80255   1.00
H2       0.84596    1.13970    0.70615   1.00
H2       0.83461    1.02008    0.86958   1.00
H2       0.92865    1.16221    0.63617   1.00
H2       0.80653    1.06197    0.87975   1.00
H2       0.87954    1.17551    0.62851   1.00
H2       0.80571    1.04140    0.83261   1.00
H2       0.90076    1.18149    0.67498   1.00
C4       0.50331    0.49654    1.23025   1.00
C4       0.50305    0.49501    1.27191   1.00
C3       0.53075    0.51942    1.20897   1.00
C3       0.53262    0.51289    1.29504   1.00
C3       0.47524    0.47458    1.20854   1.00
C3       0.47230    0.47491    1.29170   1.00
C2       0.50510    0.49815    1.14595   1.00
C2       0.50153    0.49358    1.35622   1.00
C3       0.53180    0.52010    1.16811   1.00
C3       0.53184    0.51241    1.33591   1.00
C3       0.47744    0.47589    1.16696   1.00
C3       0.47246    0.47528    1.33336   1.00
H1       0.55076    0.53675    1.22237   1.00
H1       0.55604    0.52661    1.28306   1.00
C5       0.44587    0.45229    1.22835   1.00
C5       0.44261    0.45496    1.26998   1.00
H1       0.55241    0.53707    1.15451   1.00
H1       0.55395    0.52599    1.35091   1.00
H1       0.45815    0.46046    1.15052   1.00
H1       0.45095    0.46154    1.34848   1.00
C6       0.41903    0.42596    1.20515   1.00
C6       0.40805    0.43739    1.29119   1.00
H2       0.43613    0.41022    1.18345   1.00
H2       0.39775    0.45800    1.31310   1.00
H2       0.40773    0.40220    1.22286   1.00
H2       0.38270    0.43495    1.27228   1.00
C6       0.38395    0.44827    1.18606   1.00
C6       0.41702    0.39641    1.30942   1.00
H2       0.39442    0.47539    1.17292   1.00
H2       0.44547    0.39713    1.32383   1.00
C6       0.35940    0.42605    1.15459   1.00
C6       0.38674    0.37942    1.33911   1.00
H2       0.36432    0.45733    1.20949   1.00
H2       0.42027    0.37563    1.28546   1.00
C6       0.38370    0.41755    1.11735   1.00
C6       0.38494    0.40401    1.37708   1.00
C6       0.34279    0.38723    1.17074   1.00
C6       0.34537    0.37679    1.32107   1.00
C6       0.32445    0.45222    1.14245   1.00
C6       0.39969    0.33753    1.35054   1.00
H2       0.39637    0.44432    1.10558   1.00
H2       0.41383    0.40696    1.39020   1.00
H2       0.40745    0.39730    1.12330   1.00
H2       0.37370    0.43321    1.37154   1.00
H2       0.36564    0.40451    1.09459   1.00
H2       0.36581    0.39046    1.39863   1.00
H2       0.32348    0.37336    1.14955   1.00
H2       0.32511    0.36236    1.34098   1.00
H2       0.36617    0.36667    1.17725   1.00
H2       0.33374    0.40575    1.31494   1.00
H2       0.32623    0.39229    1.19745   1.00
H2       0.34596    0.36030    1.29385   1.00
H2       0.33461    0.47992    1.13042   1.00
H2       0.42865    0.33779    1.36383   1.00
H2       0.30653    0.43803    1.12025   1.00
H2       0.37954    0.32449    1.37149   1.00
H2       0.30571    0.45860    1.16739   1.00
H2       0.40076    0.31851    1.32502   1.00
C4       0.49654    0.73025    1.00331   1.00
C4       0.49501    0.77191    1.00305   1.00
C3       0.51942    0.70897    1.03075   1.00
C3       0.51289    0.79504    1.03262   1.00
C3       0.47458    0.70854    0.97524   1.00
C3       0.47491    0.79170    0.97230   1.00
C2       0.49815    0.64595    1.00510   1.00
C2       0.49358    0.85622    1.00153   1.00
C3       0.52010    0.66811    1.03180   1.00
C3       0.51241    0.83591    1.03184   1.00
C3       0.47589    0.66696    0.97744   1.00
C3       0.47528    0.83336    0.97246   1.00
H1       0.53675    0.72237    1.05076   1.00
H1       0.52661    0.78306    1.05604   1.00
C5       0.45229    0.72835    0.94587   1.00
C5       0.45496    0.76998    0.94261   1.00
H1       0.53707    0.65451    1.05241   1.00
H1       0.52599    0.85091    1.05395   1.00
H1       0.46046    0.65052    0.95815   1.00
H1       0.46154    0.84848    0.95095   1.00
C6       0.42596    0.70515    0.91903   1.00
C6       0.43739    0.79119    0.90805   1.00
H2       0.41022    0.68345    0.93613   1.00
H2       0.45800    0.81310    0.89775   1.00
H2       0.40220    0.72286    0.90773   1.00
H2       0.43495    0.77228    0.88270   1.00
C6       0.44827    0.68606    0.88395   1.00
C6       0.39641    0.80942    0.91702   1.00
H2       0.47539    0.67292    0.89442   1.00
H2       0.39713    0.82383    0.94547   1.00
C6       0.42605    0.65459    0.85940   1.00
C6       0.37942    0.83911    0.88674   1.00
H2       0.45733    0.70949    0.86432   1.00
H2       0.37563    0.78546    0.92027   1.00
C6       0.41755    0.61735    0.88370   1.00
C6       0.40401    0.87708    0.88494   1.00
C6       0.38723    0.67074    0.84279   1.00
C6       0.37679    0.82107    0.84537   1.00
C6       0.45222    0.64245    0.82445   1.00
C6       0.33753    0.85054    0.89969   1.00
H2       0.44432    0.60558    0.89637   1.00
H2       0.40696    0.89020    0.91383   1.00
H2       0.39730    0.62330    0.90745   1.00
H2       0.43321    0.87154    0.87370   1.00
H2       0.40451    0.59459    0.86564   1.00
H2       0.39046    0.89863    0.86581   1.00
H2       0.37336    0.64955    0.82348   1.00
H2       0.36236    0.84098    0.82511   1.00
H2       0.36667    0.67725    0.86617   1.00
H2       0.40575    0.81494    0.83374   1.00
H2       0.39229    0.69745    0.82623   1.00
H2       0.36030    0.79385    0.84596   1.00
H2       0.47992    0.63042    0.83461   1.00
H2       0.33779    0.86383    0.92865   1.00
H2       0.43803    0.62025    0.80653   1.00
H2       0.32449    0.87149    0.87954   1.00
H2       0.45860    0.66739    0.80571   1.00
H2       0.31851    0.82502    0.90076   1.00
C4       0.26975    0.50331    1.00346   1.00
C4       0.22809    0.50305    1.00499   1.00
C3       0.29103    0.53075    0.98058   1.00
C3       0.20496    0.53262    0.98711   1.00
C3       0.29146    0.47524    1.02542   1.00
C3       0.20830    0.47230    1.02509   1.00
C2       0.35405    0.50510    1.00185   1.00
C2       0.14378    0.50153    1.00642   1.00
C3       0.33189    0.53180    0.97990   1.00
C3       0.16409    0.53184    0.98759   1.00
C3       0.33304    0.47744    1.02411   1.00
C3       0.16664    0.47246    1.02472   1.00
H1       0.27763    0.55076    0.96325   1.00
H1       0.21694    0.55604    0.97339   1.00
C5       0.27165    0.44587    1.04771   1.00
C5       0.23002    0.44261    1.04504   1.00
H1       0.34549    0.55241    0.96293   1.00
H1       0.14909    0.55395    0.97401   1.00
H1       0.34948    0.45815    1.03954   1.00
H1       0.15152    0.45095    1.03846   1.00
C6       0.29485    0.41903    1.07404   1.00
C6       0.20881    0.40805    1.06261   1.00
H2       0.31655    0.43613    1.08978   1.00
H2       0.18690    0.39775    1.04200   1.00
H2       0.27714    0.40773    1.09780   1.00
H2       0.22772    0.38270    1.06505   1.00
C6       0.31394    0.38395    1.05173   1.00
C6       0.19058    0.41702    1.10359   1.00
H2       0.32708    0.39442    1.02461   1.00
H2       0.17617    0.44547    1.10287   1.00
C6       0.34541    0.35940    1.07395   1.00
C6       0.16089    0.38674    1.12058   1.00
H2       0.29051    0.36432    1.04267   1.00
H2       0.21454    0.42027    1.12437   1.00
C6       0.38265    0.38370    1.08245   1.00
C6       0.12292    0.38494    1.09599   1.00
C6       0.32926    0.34279    1.11277   1.00
C6       0.17893    0.34537    1.12321   1.00
C6       0.35755    0.32445    1.04778   1.00
C6       0.14946    0.39969    1.16247   1.00
H2       0.39442    0.39637    1.05568   1.00
H2       0.10980    0.41383    1.09304   1.00
H2       0.37670    0.40745    1.10270   1.00
H2       0.12846    0.37370    1.06679   1.00
H2       0.40541    0.36564    1.09549   1.00
H2       0.10137    0.36581    1.10954   1.00
H2       0.35045    0.32348    1.12664   1.00
H2       0.15902    0.32511    1.13764   1.00
H2       0.32275    0.36617    1.13333   1.00
H2       0.18506    0.33374    1.09425   1.00
H2       0.30255    0.32623    1.10771   1.00
H2       0.20615    0.34596    1.13970   1.00
H2       0.36958    0.33461    1.02008   1.00
H2       0.13617    0.42865    1.16221   1.00
H2       0.37975    0.30653    1.06197   1.00
H2       0.12851    0.37954    1.17551   1.00
H2       0.33261    0.30571    1.04140   1.00
H2       0.17498    0.40076    1.18149   1.00
C4       0.73025    0.50331    0.99654   1.00
C4       0.77191    0.50305    0.99501   1.00
C3       0.70897    0.53075    1.01942   1.00
C3       0.79504    0.53262    1.01289   1.00
C3       0.70854    0.47524    0.97458   1.00
C3       0.79170    0.47230    0.97491   1.00
C2       0.64595    0.50510    0.99815   1.00
C2       0.85622    0.50153    0.99358   1.00
C3       0.66811    0.53180    1.02010   1.00
C3       0.83591    0.53184    1.01241   1.00
C3       0.66696    0.47744    0.97589   1.00
C3       0.83336    0.47246    0.97528   1.00
H1       0.72237    0.55076    1.03675   1.00
H1       0.78306    0.55604    1.02661   1.00
C5       0.72835    0.44587    0.95229   1.00
C5       0.76998    0.44261    0.95496   1.00
H1       0.65451    0.55241    1.03707   1.00
H1       0.85091    0.55395    1.02599   1.00
H1       0.65052    0.45815    0.96046   1.00
H1       0.84848    0.45095    0.96154   1.00
C6       0.70515    0.41903    0.92596   1.00
C6       0.79119    0.40805    0.93739   1.00
H2       0.68345    0.43613    0.91022   1.00
H2       0.81310    0.39775    0.95800   1.00
H2       0.72286    0.40773    0.90220   1.00
H2       0.77228    0.38270    0.93495   1.00
C6       0.68606    0.38395    0.94827   1.00
C6       0.80942    0.41702    0.89641   1.00
H2       0.67292    0.39442    0.97539   1.00
H2       0.82383    0.44547    0.89713   1.00
C6       0.65459    0.35940    0.92605   1.00
C6       0.83911    0.38674    0.87942   1.00
H2       0.70949    0.36432    0.95733   1.00
H2       0.78546    0.42027    0.87563   1.00
C6       0.61735    0.38370    0.91755   1.00
C6       0.87708    0.38494    0.90401   1.00
C6       0.67074    0.34279    0.88723   1.00
C6       0.82107    0.34537    0.87679   1.00
C6       0.64245    0.32445    0.95222   1.00
C6       0.85054    0.39969    0.83753   1.00
H2       0.60558    0.39637    0.94432   1.00
H2       0.89020    0.41383    0.90696   1.00
H2       0.62330    0.40745    0.89730   1.00
H2       0.87154    0.37370    0.93321   1.00
H2       0.59459    0.36564    0.90451   1.00
H2       0.89863    0.36581    0.89046   1.00
H2       0.64955    0.32348    0.87336   1.00
H2       0.84098    0.32511    0.86236   1.00
H2       0.67725    0.36617    0.86667   1.00
H2       0.81494    0.33374    0.90575   1.00
H2       0.69745    0.32623    0.89229   1.00
H2       0.79385    0.34596    0.86030   1.00
H2       0.63042    0.33461    0.97992   1.00
H2       0.86383    0.42865    0.83779   1.00
H2       0.62025    0.30653    0.93803   1.00
H2       0.87149    0.37954    0.82449   1.00
H2       0.66739    0.30571    0.95860   1.00
H2       0.82502    0.40076    0.81851   1.00
C4       0.50346    0.26975    1.00331   1.00
C4       0.50499    0.22809    1.00305   1.00
C3       0.48058    0.29103    1.03075   1.00
C3       0.48711    0.20496    1.03262   1.00
C3       0.52542    0.29146    0.97524   1.00
C3       0.52509    0.20830    0.97230   1.00
C2       0.50185    0.35405    1.00510   1.00
C2       0.50642    0.14378    1.00153   1.00
C3       0.47990    0.33189    1.03180   1.00
C3       0.48759    0.16409    1.03184   1.00
C3       0.52411    0.33304    0.97744   1.00
C3       0.52472    0.16664    0.97246   1.00
H1       0.46325    0.27763    1.05076   1.00
H1       0.47339    0.21694    1.05604   1.00
C5       0.54771    0.27165    0.94587   1.00
C5       0.54504    0.23002    0.94261   1.00
H1       0.46293    0.34549    1.05241   1.00
H1       0.47401    0.14909    1.05395   1.00
H1       0.53954    0.34948    0.95815   1.00
H1       0.53846    0.15152    0.95095   1.00
C6       0.57404    0.29485    0.91903   1.00
C6       0.56261    0.20881    0.90805   1.00
H2       0.58978    0.31655    0.93613   1.00
H2       0.54200    0.18690    0.89775   1.00
H2       0.59780    0.27714    0.90773   1.00
H2       0.56505    0.22772    0.88270   1.00
C6       0.55173    0.31394    0.88395   1.00
C6       0.60359    0.19058    0.91702   1.00
H2       0.52461    0.32708    0.89442   1.00
H2       0.60287    0.17617    0.94547   1.00
C6       0.57395    0.34541    0.85940   1.00
C6       0.62058    0.16089    0.88674   1.00
H2       0.54267    0.29051    0.86432   1.00
H2       0.62437    0.21454    0.92027   1.00
C6       0.58245    0.38265    0.88370   1.00
C6       0.59599    0.12292    0.88494   1.00
C6       0.61277    0.32926    0.84279   1.00
C6       0.62321    0.17893    0.84537   1.00
C6       0.54778    0.35755    0.82445   1.00
C6       0.66247    0.14946    0.89969   1.00
H2       0.55568    0.39442    0.89637   1.00
H2       0.59304    0.10980    0.91383   1.00
H2       0.60270    0.37670    0.90745   1.00
H2       0.56679    0.12846    0.87370   1.00
H2       0.59549    0.40541    0.86564   1.00
H2       0.60954    0.10137    0.86581   1.00
H2       0.62664    0.35045    0.82348   1.00
H2       0.63764    0.15902    0.82511   1.00
H2       0.63333    0.32275    0.86617   1.00
H2       0.59425    0.18506    0.83374   1.00
H2       0.60771    0.30255    0.82623   1.00
H2       0.63970    0.20615    0.84596   1.00
H2       0.52008    0.36958    0.83461   1.00
H2       0.66221    0.13617    0.92865   1.00
H2       0.56197    0.37975    0.80653   1.00
H2       0.67551    0.12851    0.87954   1.00
H2       0.54140    0.33261    0.80571   1.00
H2       0.68149    0.17498    0.90076   1.00
C4       0.50331    0.50346    0.76975   1.00
C4       0.50305    0.50499    0.72809   1.00
C3       0.53075    0.48058    0.79103   1.00
C3       0.53262    0.48711    0.70496   1.00
C3       0.47524    0.52542    0.79146   1.00
C3       0.47230    0.52509    0.70830   1.00
C2       0.50510    0.50185    0.85405   1.00
C2       0.50153    0.50642    0.64378   1.00
C3       0.53180    0.47990    0.83189   1.00
C3       0.53184    0.48759    0.66409   1.00
C3       0.47744    0.52411    0.83304   1.00
C3       0.47246    0.52472    0.66664   1.00
H1       0.55076    0.46325    0.77763   1.00
H1       0.55604    0.47339    0.71694   1.00
C5       0.44587    0.54771    0.77165   1.00
C5       0.44261    0.54504    0.73002   1.00
H1       0.55241    0.46293    0.84549   1.00
H1       0.55395    0.47401    0.64909   1.00
H1       0.45815    0.53954    0.84948   1.00
H1       0.45095    0.53846    0.65152   1.00
C6       0.41903    0.57404    0.79485   1.00
C6       0.40805    0.56261    0.70881   1.00
H2       0.43613    0.58978    0.81655   1.00
H2       0.39775    0.54200    0.68690   1.00
H2       0.40773    0.59780    0.77714   1.00
H2       0.38270    0.56505    0.72772   1.00
C6       0.38395    0.55173    0.81394   1.00
C6       0.41702    0.60359    0.69058   1.00
H2       0.39442    0.52461    0.82708   1.00
H2       0.44547    0.60287    0.67617   1.00
C6       0.35940    0.57395    0.84541   1.00
C6       0.38674    0.62058    0.66089   1.00
H2       0.36432    0.54267    0.79051   1.00
H2       0.42027    0.62437    0.71454   1.00
C6       0.38370    0.58245    0.88265   1.00
C6       0.38494    0.59599    0.62292   1.00
C6       0.34279    0.61277    0.82926   1.00
C6       0.34537    0.62321    0.67893   1.00
C6       0.32445    0.54778    0.85755   1.00
C6       0.39969    0.66247    0.64946   1.00
H2       0.39637    0.55568    0.89442   1.00
H2       0.41383    0.59304    0.60980   1.00
H2       0.40745    0.60270    0.87670   1.00
H2       0.37370    0.56679    0.62846   1.00
H2       0.36564    0.59549    0.90541   1.00
H2       0.36581    0.60954    0.60137   1.00
H2       0.32348    0.62664    0.85045   1.00
H2       0.32511    0.63764    0.65902   1.00
H2       0.36617    0.63333    0.82275   1.00
H2       0.33374    0.59425    0.68506   1.00
H2       0.32623    0.60771    0.80255   1.00
H2       0.34596    0.63970    0.70615   1.00
H2       0.33461    0.52008    0.86958   1.00
H2       0.42865    0.66221    0.63617   1.00
H2       0.30653    0.56197    0.87975   1.00
H2       0.37954    0.67551    0.62851   1.00
H2       0.30571    0.54140    0.83261   1.00
H2       0.40076    0.68149    0.67498   1.00
C4       0.50331    0.99654    0.73025   1.00
C4       0.50305    0.99501    0.77191   1.00
C3       0.53075    1.01942    0.70897   1.00
C3       0.53262    1.01289    0.79504   1.00
C3       0.47524    0.97458    0.70854   1.00
C3       0.47230    0.97491    0.79170   1.00
C2       0.50510    0.99815    0.64595   1.00
C2       0.50153    0.99358    0.85622   1.00
C3       0.53180    1.02010    0.66811   1.00
C3       0.53184    1.01241    0.83591   1.00
C3       0.47744    0.97589    0.66696   1.00
C3       0.47246    0.97528    0.83336   1.00
H1       0.55076    1.03675    0.72237   1.00
H1       0.55604    1.02661    0.78306   1.00
C5       0.44587    0.95229    0.72835   1.00
C5       0.44261    0.95496    0.76998   1.00
H1       0.55241    1.03707    0.65451   1.00
H1       0.55395    1.02599    0.85091   1.00
H1       0.45815    0.96046    0.65052   1.00
H1       0.45095    0.96154    0.84848   1.00
C6       0.41903    0.92596    0.70515   1.00
C6       0.40805    0.93739    0.79119   1.00
H2       0.43613    0.91022    0.68345   1.00
H2       0.39775    0.95800    0.81310   1.00
H2       0.40773    0.90220    0.72286   1.00
H2       0.38270    0.93495    0.77228   1.00
C6       0.38395    0.94827    0.68606   1.00
C6       0.41702    0.89641    0.80942   1.00
H2       0.39442    0.97539    0.67292   1.00
H2       0.44547    0.89713    0.82383   1.00
C6       0.35940    0.92605    0.65459   1.00
C6       0.38674    0.87942    0.83911   1.00
H2       0.36432    0.95733    0.70949   1.00
H2       0.42027    0.87563    0.78546   1.00
C6       0.38370    0.91755    0.61735   1.00
C6       0.38494    0.90401    0.87708   1.00
C6       0.34279    0.88723    0.67074   1.00
C6       0.34537    0.87679    0.82107   1.00
C6       0.32445    0.95222    0.64245   1.00
C6       0.39969    0.83753    0.85054   1.00
H2       0.39637    0.94432    0.60558   1.00
H2       0.41383    0.90696    0.89020   1.00
H2       0.40745    0.89730    0.62330   1.00
H2       0.37370    0.93321    0.87154   1.00
H2       0.36564    0.90451    0.59459   1.00
H2       0.36581    0.89046    0.89863   1.00
H2       0.32348    0.87336    0.64955   1.00
H2       0.32511    0.86236    0.84098   1.00
H2       0.36617    0.86667    0.67725   1.00
H2       0.33374    0.90575    0.81494   1.00
H2       0.32623    0.89229    0.69745   1.00
H2       0.34596    0.86030    0.79385   1.00
H2       0.33461    0.97992    0.63042   1.00
H2       0.42865    0.83779    0.86383   1.00
H2       0.30653    0.93803    0.62025   1.00
H2       0.37954    0.82449    0.87149   1.00
H2       0.30571    0.95860    0.66739   1.00
H2       0.40076    0.81851    0.82502   1.00
C4       0.49654    1.23025    0.50331   1.00
C4       0.49501    1.27191    0.50305   1.00
C3       0.51942    1.20897    0.53075   1.00
C3       0.51289    1.29504    0.53262   1.00
C3       0.47458    1.20854    0.47524   1.00
C3       0.47491    1.29170    0.47230   1.00
C2       0.49815    1.14595    0.50510   1.00
C2       0.49358    1.35622    0.50153   1.00
C3       0.52010    1.16811    0.53180   1.00
C3       0.51241    1.33591    0.53184   1.00
C3       0.47589    1.16696    0.47744   1.00
C3       0.47528    1.33336    0.47246   1.00
H1       0.53675    1.22237    0.55076   1.00
H1       0.52661    1.28306    0.55604   1.00
C5       0.45229    1.22835    0.44587   1.00
C5       0.45496    1.26998    0.44261   1.00
H1       0.53707    1.15451    0.55241   1.00
H1       0.52599    1.35091    0.55395   1.00
H1       0.46046    1.15052    0.45815   1.00
H1       0.46154    1.34848    0.45095   1.00
C6       0.42596    1.20515    0.41903   1.00
C6       0.43739    1.29119    0.40805   1.00
H2       0.41022    1.18345    0.43613   1.00
H2       0.45800    1.31310    0.39775   1.00
H2       0.40220    1.22286    0.40773   1.00
H2       0.43495    1.27228    0.38270   1.00
C6       0.44827    1.18606    0.38395   1.00
C6       0.39641    1.30942    0.41702   1.00
H2       0.47539    1.17292    0.39442   1.00
H2       0.39713    1.32383    0.44547   1.00
C6       0.42605    1.15459    0.35940   1.00
C6       0.37942    1.33911    0.38674   1.00
H2       0.45733    1.20949    0.36432   1.00
H2       0.37563    1.28546    0.42027   1.00
C6       0.41755    1.11735    0.38370   1.00
C6       0.40401    1.37708    0.38494   1.00
C6       0.38723    1.17074    0.34279   1.00
C6       0.37679    1.32107    0.34537   1.00
C6       0.45222    1.14245    0.32445   1.00
C6       0.33753    1.35054    0.39969   1.00
H2       0.44432    1.10558    0.39637   1.00
H2       0.40696    1.39020    0.41383   1.00
H2       0.39730    1.12330    0.40745   1.00
H2       0.43321    1.37154    0.37370   1.00
H2       0.40451    1.09459    0.36564   1.00
H2       0.39046    1.39863    0.36581   1.00
H2       0.37336    1.14955    0.32348   1.00
H2       0.36236    1.34098    0.32511   1.00
H2       0.36667    1.17725    0.36617   1.00
H2       0.40575    1.31494    0.33374   1.00
H2       0.39229    1.19745    0.32623   1.00
H2       0.36030    1.29385    0.34596   1.00
H2       0.47992    1.13042    0.33461   1.00
H2       0.33779    1.36383    0.42865   1.00
H2       0.43803    1.12025    0.30653   1.00
H2       0.32449    1.37149    0.37954   1.00
H2       0.45860    1.16739    0.30571   1.00
H2       0.31851    1.32502    0.40076   1.00
C4       0.26975    1.00331    0.50346   1.00
C4       0.22809    1.00305    0.50499   1.00
C3       0.29103    1.03075    0.48058   1.00
C3       0.20496    1.03262    0.48711   1.00
C3       0.29146    0.97524    0.52542   1.00
C3       0.20830    0.97230    0.52509   1.00
C2       0.35405    1.00510    0.50185   1.00
C2       0.14378    1.00153    0.50642   1.00
C3       0.33189    1.03180    0.47990   1.00
C3       0.16409    1.03184    0.48759   1.00
C3       0.33304    0.97744    0.52411   1.00
C3       0.16664    0.97246    0.52472   1.00
H1       0.27763    1.05076    0.46325   1.00
H1       0.21694    1.05604    0.47339   1.00
C5       0.27165    0.94587    0.54771   1.00
C5       0.23002    0.94261    0.54504   1.00
H1       0.34549    1.05241    0.46293   1.00
H1       0.14909    1.05395    0.47401   1.00
H1       0.34948    0.95815    0.53954   1.00
H1       0.15152    0.95095    0.53846   1.00
C6       0.29485    0.91903    0.57404   1.00
C6       0.20881    0.90805    0.56261   1.00
H2       0.31655    0.93613    0.58978   1.00
H2       0.18690    0.89775    0.54200   1.00
H2       0.27714    0.90773    0.59780   1.00
H2       0.22772    0.88270    0.56505   1.00
C6       0.31394    0.88395    0.55173   1.00
C6       0.19058    0.91702    0.60359   1.00
H2       0.32708    0.89442    0.52461   1.00
H2       0.17617    0.94547    0.60287   1.00
C6       0.34541    0.85940    0.57395   1.00
C6       0.16089    0.88674    0.62058   1.00
H2       0.29051    0.86432    0.54267   1.00
H2       0.21454    0.92027    0.62437   1.00
C6       0.38265    0.88370    0.58245   1.00
C6       0.12292    0.88494    0.59599   1.00
C6       0.32926    0.84279    0.61277   1.00
C6       0.17893    0.84537    0.62321   1.00
C6       0.35755    0.82445    0.54778   1.00
C6       0.14946    0.89969    0.66247   1.00
H2       0.39442    0.89637    0.55568   1.00
H2       0.10980    0.91383    0.59304   1.00
H2       0.37670    0.90745    0.60270   1.00
H2       0.12846    0.87370    0.56679   1.00
H2       0.40541    0.86564    0.59549   1.00
H2       0.10137    0.86581    0.60954   1.00
H2       0.35045    0.82348    0.62664   1.00
H2       0.15902    0.82511    0.63764   1.00
H2       0.32275    0.86617    0.63333   1.00
H2       0.18506    0.83374    0.59425   1.00
H2       0.30255    0.82623    0.60771   1.00
H2       0.20615    0.84596    0.63970   1.00
H2       0.36958    0.83461    0.52008   1.00
H2       0.13617    0.92865    0.66221   1.00
H2       0.37975    0.80653    0.56197   1.00
H2       0.12851    0.87954    0.67551   1.00
H2       0.33261    0.80571    0.54140   1.00
H2       0.17498    0.90076    0.68149   1.00
C4       0.73025    1.00331    0.49654   1.00
C4       0.77191    1.00305    0.49501   1.00
C3       0.70897    1.03075    0.51942   1.00
C3       0.79504    1.03262    0.51289   1.00
C3       0.70854    0.97524    0.47458   1.00
C3       0.79170    0.97230    0.47491   1.00
C2       0.64595    1.00510    0.49815   1.00
C2       0.85622    1.00153    0.49358   1.00
C3       0.66811    1.03180    0.52010   1.00
C3       0.83591    1.03184    0.51241   1.00
C3       0.66696    0.97744    0.47589   1.00
C3       0.83336    0.97246    0.47528   1.00
H1       0.72237    1.05076    0.53675   1.00
H1       0.78306    1.05604    0.52661   1.00
C5       0.72835    0.94587    0.45229   1.00
C5       0.76998    0.94261    0.45496   1.00
H1       0.65451    1.05241    0.53707   1.00
H1       0.85091    1.05395    0.52599   1.00
H1       0.65052    0.95815    0.46046   1.00
H1       0.84848    0.95095    0.46154   1.00
C6       0.70515    0.91903    0.42596   1.00
C6       0.79119    0.90805    0.43739   1.00
H2       0.68345    0.93613    0.41022   1.00
H2       0.81310    0.89775    0.45800   1.00
H2       0.72286    0.90773    0.40220   1.00
H2       0.77228    0.88270    0.43495   1.00
C6       0.68606    0.88395    0.44827   1.00
C6       0.80942    0.91702    0.39641   1.00
H2       0.67292    0.89442    0.47539   1.00
H2       0.82383    0.94547    0.39713   1.00
C6       0.65459    0.85940    0.42605   1.00
C6       0.83911    0.88674    0.37942   1.00
H2       0.70949    0.86432    0.45733   1.00
H2       0.78546    0.92027    0.37563   1.00
C6       0.61735    0.88370    0.41755   1.00
C6       0.87708    0.88494    0.40401   1.00
C6       0.67074    0.84279    0.38723   1.00
C6       0.82107    0.84537    0.37679   1.00
C6       0.64245    0.82445    0.45222   1.00
C6       0.85054    0.89969    0.33753   1.00
H2       0.60558    0.89637    0.44432   1.00
H2       0.89020    0.91383    0.40696   1.00
H2       0.62330    0.90745    0.39730   1.00
H2       0.87154    0.87370    0.43321   1.00
H2       0.59459    0.86564    0.40451   1.00
H2       0.89863    0.86581    0.39046   1.00
H2       0.64955    0.82348    0.37336   1.00
H2       0.84098    0.82511    0.36236   1.00
H2       0.67725    0.86617    0.36667   1.00
H2       0.81494    0.83374    0.40575   1.00
H2       0.69745    0.82623    0.39229   1.00
H2       0.79385    0.84596    0.36030   1.00
H2       0.63042    0.83461    0.47992   1.00
H2       0.86383    0.92865    0.33779   1.00
H2       0.62025    0.80653    0.43803   1.00
H2       0.87149    0.87954    0.32449   1.00
H2       0.66739    0.80571    0.45860   1.00
H2       0.82502    0.90076    0.31851   1.00
C4       0.50346    0.76975    0.50331   1.00
C4       0.50499    0.72809    0.50305   1.00
C3       0.48058    0.79103    0.53075   1.00
C3       0.48711    0.70496    0.53262   1.00
C3       0.52542    0.79146    0.47524   1.00
C3       0.52509    0.70830    0.47230   1.00
C2       0.50185    0.85405    0.50510   1.00
C2       0.50642    0.64378    0.50153   1.00
C3       0.47990    0.83189    0.53180   1.00
C3       0.48759    0.66409    0.53184   1.00
C3       0.52411    0.83304    0.47744   1.00
C3       0.52472    0.66664    0.47246   1.00
H1       0.46325    0.77763    0.55076   1.00
H1       0.47339    0.71694    0.55604   1.00
C5       0.54771    0.77165    0.44587   1.00
C5       0.54504    0.73002    0.44261   1.00
H1       0.46293    0.84549    0.55241   1.00
H1       0.47401    0.64909    0.55395   1.00
H1       0.53954    0.84948    0.45815   1.00
H1       0.53846    0.65152    0.45095   1.00
C6       0.57404    0.79485    0.41903   1.00
C6       0.56261    0.70881    0.40805   1.00
H2       0.58978    0.81655    0.43613   1.00
H2       0.54200    0.68690    0.39775   1.00
H2       0.59780    0.77714    0.40773   1.00
H2       0.56505    0.72772    0.38270   1.00
C6       0.55173    0.81394    0.38395   1.00
C6       0.60359    0.69058    0.41702   1.00
H2       0.52461    0.82708    0.39442   1.00
H2       0.60287    0.67617    0.44547   1.00
C6       0.57395    0.84541    0.35940   1.00
C6       0.62058    0.66089    0.38674   1.00
H2       0.54267    0.79051    0.36432   1.00
H2       0.62437    0.71454    0.42027   1.00
C6       0.58245    0.88265    0.38370   1.00
C6       0.59599    0.62292    0.38494   1.00
C6       0.61277    0.82926    0.34279   1.00
C6       0.62321    0.67893    0.34537   1.00
C6       0.54778    0.85755    0.32445   1.00
C6       0.66247    0.64946    0.39969   1.00
H2       0.55568    0.89442    0.39637   1.00
H2       0.59304    0.60980    0.41383   1.00
H2       0.60270    0.87670    0.40745   1.00
H2       0.56679    0.62846    0.37370   1.00
H2       0.59549    0.90541    0.36564   1.00
H2       0.60954    0.60137    0.36581   1.00
H2       0.62664    0.85045    0.32348   1.00
H2       0.63764    0.65902    0.32511   1.00
H2       0.63333    0.82275    0.36617   1.00
H2       0.59425    0.68506    0.33374   1.00
H2       0.60771    0.80255    0.32623   1.00
H2       0.63970    0.70615    0.34596   1.00
H2       0.52008    0.86958    0.33461   1.00
H2       0.66221    0.63617    0.42865   1.00
H2       0.56197    0.87975    0.30653   1.00
H2       0.67551    0.62851    0.37954   1.00
H2       0.54140    0.83261    0.30571   1.00
H2       0.68149    0.67498    0.40076   1.00
C4       0.50331    1.00346    0.26975   1.00
C4       0.50305    1.00499    0.22809   1.00
C3       0.53075    0.98058    0.29103   1.00
C3       0.53262    0.98711    0.20496   1.00
C3       0.47524    1.02542    0.29146   1.00
C3       0.47230    1.02509    0.20830   1.00
C2       0.50510    1.00185    0.35405   1.00
C2       0.50153    1.00642    0.14378   1.00
C3       0.53180    0.97990    0.33189   1.00
C3       0.53184    0.98759    0.16409   1.00
C3       0.47744    1.02411    0.33304   1.00
C3       0.47246    1.02472    0.16664   1.00
H1       0.55076    0.96325    0.27763   1.00
H1       0.55604    0.97339    0.21694   1.00
C5       0.44587    1.04771    0.27165   1.00
C5       0.44261    1.04504    0.23002   1.00
H1       0.55241    0.96293    0.34549   1.00
H1       0.55395    0.97401    0.14909   1.00
H1       0.45815    1.03954    0.34948   1.00
H1       0.45095    1.03846    0.15152   1.00
C6       0.41903    1.07404    0.29485   1.00
C6       0.40805    1.06261    0.20881   1.00
H2       0.43613    1.08978    0.31655   1.00
H2       0.39775    1.04200    0.18690   1.00
H2       0.40773    1.09780    0.27714   1.00
H2       0.38270    1.06505    0.22772   1.00
C6       0.38395    1.05173    0.31394   1.00
C6       0.41702    1.10359    0.19058   1.00
H2       0.39442    1.02461    0.32708   1.00
H2       0.44547    1.10287    0.17617   1.00
C6       0.35940    1.07395    0.34541   1.00
C6       0.38674    1.12058    0.16089   1.00
H2       0.36432    1.04267    0.29051   1.00
H2       0.42027    1.12437    0.21454   1.00
C6       0.38370    1.08245    0.38265   1.00
C6       0.38494    1.09599    0.12292   1.00
C6       0.34279    1.11277    0.32926   1.00
C6       0.34537    1.12321    0.17893   1.00
C6       0.32445    1.04778    0.35755   1.00
C6       0.39969    1.16247    0.14946   1.00
H2       0.39637    1.05568    0.39442   1.00
H2       0.41383    1.09304    0.10980   1.00
H2       0.40745    1.10270    0.37670   1.00
H2       0.37370    1.06679    0.12846   1.00
H2       0.36564    1.09549    0.40541   1.00
H2       0.36581    1.10954    0.10137   1.00
H2       0.32348    1.12664    0.35045   1.00
H2       0.32511    1.13764    0.15902   1.00
H2       0.36617    1.13333    0.32275   1.00
H2       0.33374    1.09425    0.18506   1.00
H2       0.32623    1.10771    0.30255   1.00
H2       0.34596    1.13970    0.20615   1.00
H2       0.33461    1.02008    0.36958   1.00
H2       0.42865    1.16221    0.13617   1.00
H2       0.30653    1.06197    0.37975   1.00
H2       0.37954    1.17551    0.12851   1.00
H2       0.30571    1.04140    0.33261   1.00
H2       0.40076    1.18149    0.17498   1.00
C4       1.00331    0.49654    0.73025   1.00
C4       1.00305    0.49501    0.77191   1.00
C3       1.03075    0.51942    0.70897   1.00
C3       1.03262    0.51289    0.79504   1.00
C3       0.97524    0.47458    0.70854   1.00
C3       0.97230    0.47491    0.79170   1.00
C2       1.00510    0.49815    0.64595   1.00
C2       1.00153    0.49358    0.85622   1.00
C3       1.03180    0.52010    0.66811   1.00
C3       1.03184    0.51241    0.83591   1.00
C3       0.97744    0.47589    0.66696   1.00
C3       0.97246    0.47528    0.83336   1.00
H1       1.05076    0.53675    0.72237   1.00
H1       1.05604    0.52661    0.78306   1.00
C5       0.94587    0.45229    0.72835   1.00
C5       0.94261    0.45496    0.76998   1.00
H1       1.05241    0.53707    0.65451   1.00
H1       1.05395    0.52599    0.85091   1.00
H1       0.95815    0.46046    0.65052   1.00
H1       0.95095    0.46154    0.84848   1.00
C6       0.91903    0.42596    0.70515   1.00
C6       0.90805    0.43739    0.79119   1.00
H2       0.93613    0.41022    0.68345   1.00
H2       0.89775    0.45800    0.81310   1.00
H2       0.90773    0.40220    0.72286   1.00
H2       0.88270    0.43495    0.77228   1.00
C6       0.88395    0.44827    0.68606   1.00
C6       0.91702    0.39641    0.80942   1.00
H2       0.89442    0.47539    0.67292   1.00
H2       0.94547    0.39713    0.82383   1.00
C6       0.85940    0.42605    0.65459   1.00
C6       0.88674    0.37942    0.83911   1.00
H2       0.86432    0.45733    0.70949   1.00
H2       0.92027    0.37563    0.78546   1.00
C6       0.88370    0.41755    0.61735   1.00
C6       0.88494    0.40401    0.87708   1.00
C6       0.84279    0.38723    0.67074   1.00
C6       0.84537    0.37679    0.82107   1.00
C6       0.82445    0.45222    0.64245   1.00
C6       0.89969    0.33753    0.85054   1.00
H2       0.89637    0.44432    0.60558   1.00
H2       0.91383    0.40696    0.89020   1.00
H2       0.90745    0.39730    0.62330   1.00
H2       0.87370    0.43321    0.87154   1.00
H2       0.86564    0.40451    0.59459   1.00
H2       0.86581    0.39046    0.89863   1.00
H2       0.82348    0.37336    0.64955   1.00
H2       0.82511    0.36236    0.84098   1.00
H2       0.86617    0.36667    0.67725   1.00
H2       0.83374    0.40575    0.81494   1.00
H2       0.82623    0.39229    0.69745   1.00
H2       0.84596    0.36030    0.79385   1.00
H2       0.83461    0.47992    0.63042   1.00
H2       0.92865    0.33779    0.86383   1.00
H2       0.80653    0.43803    0.62025   1.00
H2       0.87954    0.32449    0.87149   1.00
H2       0.80571    0.45860    0.66739   1.00
H2       0.90076    0.31851    0.82502   1.00
C4       0.99654    0.73025    0.50331   1.00
C4       0.99501    0.77191    0.50305   1.00
C3       1.01942    0.70897    0.53075   1.00
C3       1.01289    0.79504    0.53262   1.00
C3       0.97458    0.70854    0.47524   1.00
C3       0.97491    0.79170    0.47230   1.00
C2       0.99815    0.64595    0.50510   1.00
C2       0.99358    0.85622    0.50153   1.00
C3       1.02010    0.66811    0.53180   1.00
C3       1.01241    0.83591    0.53184   1.00
C3       0.97589    0.66696    0.47744   1.00
C3       0.97528    0.83336    0.47246   1.00
H1       1.03675    0.72237    0.55076   1.00
H1       1.02661    0.78306    0.55604   1.00
C5       0.95229    0.72835    0.44587   1.00
C5       0.95496    0.76998    0.44261   1.00
H1       1.03707    0.65451    0.55241   1.00
H1       1.02599    0.85091    0.55395   1.00
H1       0.96046    0.65052    0.45815   1.00
H1       0.96154    0.84848    0.45095   1.00
C6       0.92596    0.70515    0.41903   1.00
C6       0.93739    0.79119    0.40805   1.00
H2       0.91022    0.68345    0.43613   1.00
H2       0.95800    0.81310    0.39775   1.00
H2       0.90220    0.72286    0.40773   1.00
H2       0.93495    0.77228    0.38270   1.00
C6       0.94827    0.68606    0.38395   1.00
C6       0.89641    0.80942    0.41702   1.00
H2       0.97539    0.67292    0.39442   1.00
H2       0.89713    0.82383    0.44547   1.00
C6       0.92605    0.65459    0.35940   1.00
C6       0.87942    0.83911    0.38674   1.00
H2       0.95733    0.70949    0.36432   1.00
H2       0.87563    0.78546    0.42027   1.00
C6       0.91755    0.61735    0.38370   1.00
C6       0.90401    0.87708    0.38494   1.00
C6       0.88723    0.67074    0.34279   1.00
C6       0.87679    0.82107    0.34537   1.00
C6       0.95222    0.64245    0.32445   1.00
C6       0.83753    0.85054    0.39969   1.00
H2       0.94432    0.60558    0.39637   1.00
H2       0.90696    0.89020    0.41383   1.00
H2       0.89730    0.62330    0.40745   1.00
H2       0.93321    0.87154    0.37370   1.00
H2       0.90451    0.59459    0.36564   1.00
H2       0.89046    0.89863    0.36581   1.00
H2       0.87336    0.64955    0.32348   1.00
H2       0.86236    0.84098    0.32511   1.00
H2       0.86667    0.67725    0.36617   1.00
H2       0.90575    0.81494    0.33374   1.00
H2       0.89229    0.69745    0.32623   1.00
H2       0.86030    0.79385    0.34596   1.00
H2       0.97992    0.63042    0.33461   1.00
H2       0.83779    0.86383    0.42865   1.00
H2       0.93803    0.62025    0.30653   1.00
H2       0.82449    0.87149    0.37954   1.00
H2       0.95860    0.66739    0.30571   1.00
H2       0.81851    0.82502    0.40076   1.00
C4       0.76975    0.50331    0.50346   1.00
C4       0.72809    0.50305    0.50499   1.00
C3       0.79103    0.53075    0.48058   1.00
C3       0.70496    0.53262    0.48711   1.00
C3       0.79146    0.47524    0.52542   1.00
C3       0.70830    0.47230    0.52509   1.00
C2       0.85405    0.50510    0.50185   1.00
C2       0.64378    0.50153    0.50642   1.00
C3       0.83189    0.53180    0.47990   1.00
C3       0.66409    0.53184    0.48759   1.00
C3       0.83304    0.47744    0.52411   1.00
C3       0.66664    0.47246    0.52472   1.00
H1       0.77763    0.55076    0.46325   1.00
H1       0.71694    0.55604    0.47339   1.00
C5       0.77165    0.44587    0.54771   1.00
C5       0.73002    0.44261    0.54504   1.00
H1       0.84549    0.55241    0.46293   1.00
H1       0.64909    0.55395    0.47401   1.00
H1       0.84948    0.45815    0.53954   1.00
H1       0.65152    0.45095    0.53846   1.00
C6       0.79485    0.41903    0.57404   1.00
C6       0.70881    0.40805    0.56261   1.00
H2       0.81655    0.43613    0.58978   1.00
H2       0.68690    0.39775    0.54200   1.00
H2       0.77714    0.40773    0.59780   1.00
H2       0.72772    0.38270    0.56505   1.00
C6       0.81394    0.38395    0.55173   1.00
C6       0.69058    0.41702    0.60359   1.00
H2       0.82708    0.39442    0.52461   1.00
H2       0.67617    0.44547    0.60287   1.00
C6       0.84541    0.35940    0.57395   1.00
C6       0.66089    0.38674    0.62058   1.00
H2       0.79051    0.36432    0.54267   1.00
H2       0.71454    0.42027    0.62437   1.00
C6       0.88265    0.38370    0.58245   1.00
C6       0.62292    0.38494    0.59599   1.00
C6       0.82926    0.34279    0.61277   1.00
C6       0.67893    0.34537    0.62321   1.00
C6       0.85755    0.32445    0.54778   1.00
C6       0.64946    0.39969    0.66247   1.00
H2       0.89442    0.39637    0.55568   1.00
H2       0.60980    0.41383    0.59304   1.00
H2       0.87670    0.40745    0.60270   1.00
H2       0.62846    0.37370    0.56679   1.00
H2       0.90541    0.36564    0.59549   1.00
H2       0.60137    0.36581    0.60954   1.00
H2       0.85045    0.32348    0.62664   1.00
H2       0.65902    0.32511    0.63764   1.00
H2       0.82275    0.36617    0.63333   1.00
H2       0.68506    0.33374    0.59425   1.00
H2       0.80255    0.32623    0.60771   1.00
H2       0.70615    0.34596    0.63970   1.00
H2       0.86958    0.33461    0.52008   1.00
H2       0.63617    0.42865    0.66221   1.00
H2       0.87975    0.30653    0.56197   1.00
H2       0.62851    0.37954    0.67551   1.00
H2       0.83261    0.30571    0.54140   1.00
H2       0.67498    0.40076    0.68149   1.00
C4       1.23025    0.50331    0.49654   1.00
C4       1.27191    0.50305    0.49501   1.00
C3       1.20897    0.53075    0.51942   1.00
C3       1.29504    0.53262    0.51289   1.00
C3       1.20854    0.47524    0.47458   1.00
C3       1.29170    0.47230    0.47491   1.00
C2       1.14595    0.50510    0.49815   1.00
C2       1.35622    0.50153    0.49358   1.00
C3       1.16811    0.53180    0.52010   1.00
C3       1.33591    0.53184    0.51241   1.00
C3       1.16696    0.47744    0.47589   1.00
C3       1.33336    0.47246    0.47528   1.00
H1       1.22237    0.55076    0.53675   1.00
H1       1.28306    0.55604    0.52661   1.00
C5       1.22835    0.44587    0.45229   1.00
C5       1.26998    0.44261    0.45496   1.00
H1       1.15451    0.55241    0.53707   1.00
H1       1.35091    0.55395    0.52599   1.00
H1       1.15052    0.45815    0.46046   1.00
H1       1.34848    0.45095    0.46154   1.00
C6       1.20515    0.41903    0.42596   1.00
C6       1.29119    0.40805    0.43739   1.00
H2       1.18345    0.43613    0.41022   1.00
H2       1.31310    0.39775    0.45800   1.00
H2       1.22286    0.40773    0.40220   1.00
H2       1.27228    0.38270    0.43495   1.00
C6       1.18606    0.38395    0.44827   1.00
C6       1.30942    0.41702    0.39641   1.00
H2       1.17292    0.39442    0.47539   1.00
H2       1.32383    0.44547    0.39713   1.00
C6       1.15459    0.35940    0.42605   1.00
C6       1.33911    0.38674    0.37942   1.00
H2       1.20949    0.36432    0.45733   1.00
H2       1.28546    0.42027    0.37563   1.00
C6       1.11735    0.38370    0.41755   1.00
C6       1.37708    0.38494    0.40401   1.00
C6       1.17074    0.34279    0.38723   1.00
C6       1.32107    0.34537    0.37679   1.00
C6       1.14245    0.32445    0.45222   1.00
C6       1.35054    0.39969    0.33753   1.00
H2       1.10558    0.39637    0.44432   1.00
H2       1.39020    0.41383    0.40696   1.00
H2       1.12330    0.40745    0.39730   1.00
H2       1.37154    0.37370    0.43321   1.00
H2       1.09459    0.36564    0.40451   1.00
H2       1.39863    0.36581    0.39046   1.00
H2       1.14955    0.32348    0.37336   1.00
H2       1.34098    0.32511    0.36236   1.00
H2       1.17725    0.36617    0.36667   1.00
H2       1.31494    0.33374    0.40575   1.00
H2       1.19745    0.32623    0.39229   1.00
H2       1.29385    0.34596    0.36030   1.00
H2       1.13042    0.33461    0.47992   1.00
H2       1.36383    0.42865    0.33779   1.00
H2       1.12025    0.30653    0.43803   1.00
H2       1.37149    0.37954    0.32449   1.00
H2       1.16739    0.30571    0.45860   1.00
H2       1.32502    0.40076    0.31851   1.00
C4       1.00346    0.26975    0.50331   1.00
C4       1.00499    0.22809    0.50305   1.00
C3       0.98058    0.29103    0.53075   1.00
C3       0.98711    0.20496    0.53262   1.00
C3       1.02542    0.29146    0.47524   1.00
C3       1.02509    0.20830    0.47230   1.00
C2       1.00185    0.35405    0.50510   1.00
C2       1.00642    0.14378    0.50153   1.00
C3       0.97990    0.33189    0.53180   1.00
C3       0.98759    0.16409    0.53184   1.00
C3       1.02411    0.33304    0.47744   1.00
C3       1.02472    0.16664    0.47246   1.00
H1       0.96325    0.27763    0.55076   1.00
H1       0.97339    0.21694    0.55604   1.00
C5       1.04771    0.27165    0.44587   1.00
C5       1.04504    0.23002    0.44261   1.00
H1       0.96293    0.34549    0.55241   1.00
H1       0.97401    0.14909    0.55395   1.00
H1       1.03954    0.34948    0.45815   1.00
H1       1.03846    0.15152    0.45095   1.00
C6       1.07404    0.29485    0.41903   1.00
C6       1.06261    0.20881    0.40805   1.00
H2       1.08978    0.31655    0.43613   1.00
H2       1.04200    0.18690    0.39775   1.00
H2       1.09780    0.27714    0.40773   1.00
H2       1.06505    0.22772    0.38270   1.00
C6       1.05173    0.31394    0.38395   1.00
C6       1.10359    0.19058    0.41702   1.00
H2       1.02461    0.32708    0.39442   1.00
H2       1.10287    0.17617    0.44547   1.00
C6       1.07395    0.34541    0.35940   1.00
C6       1.12058    0.16089    0.38674   1.00
H2       1.04267    0.29051    0.36432   1.00
H2       1.12437    0.21454    0.42027   1.00
C6       1.08245    0.38265    0.38370   1.00
C6       1.09599    0.12292    0.38494   1.00
C6       1.11277    0.32926    0.34279   1.00
C6       1.12321    0.17893    0.34537   1.00
C6       1.04778    0.35755    0.32445   1.00
C6       1.16247    0.14946    0.39969   1.00
H2       1.05568    0.39442    0.39637   1.00
H2       1.09304    0.10980    0.41383   1.00
H2       1.10270    0.37670    0.40745   1.00
H2       1.06679    0.12846    0.37370   1.00
H2       1.09549    0.40541    0.36564   1.00
H2       1.10954    0.10137    0.36581   1.00
H2       1.12664    0.35045    0.32348   1.00
H2       1.13764    0.15902    0.32511   1.00
H2       1.13333    0.32275    0.36617   1.00
H2       1.09425    0.18506    0.33374   1.00
H2       1.10771    0.30255    0.32623   1.00
H2       1.13970    0.20615    0.34596   1.00
H2       1.02008    0.36958    0.33461   1.00
H2       1.16221    0.13617    0.42865   1.00
H2       1.06197    0.37975    0.30653   1.00
H2       1.17551    0.12851    0.37954   1.00
H2       1.04140    0.33261    0.30571   1.00
H2       1.18149    0.17498    0.40076   1.00
C4       1.00331    0.50346    0.26975   1.00
C4       1.00305    0.50499    0.22809   1.00
C3       1.03075    0.48058    0.29103   1.00
C3       1.03262    0.48711    0.20496   1.00
C3       0.97524    0.52542    0.29146   1.00
C3       0.97230    0.52509    0.20830   1.00
C2       1.00510    0.50185    0.35405   1.00
C2       1.00153    0.50642    0.14378   1.00
C3       1.03180    0.47990    0.33189   1.00
C3       1.03184    0.48759    0.16409   1.00
C3       0.97744    0.52411    0.33304   1.00
C3       0.97246    0.52472    0.16664   1.00
H1       1.05076    0.46325    0.27763   1.00
H1       1.05604    0.47339    0.21694   1.00
C5       0.94587    0.54771    0.27165   1.00
C5       0.94261    0.54504    0.23002   1.00
H1       1.05241    0.46293    0.34549   1.00
H1       1.05395    0.47401    0.14909   1.00
H1       0.95815    0.53954    0.34948   1.00
H1       0.95095    0.53846    0.15152   1.00
C6       0.91903    0.57404    0.29485   1.00
C6       0.90805    0.56261    0.20881   1.00
H2       0.93613    0.58978    0.31655   1.00
H2       0.89775    0.54200    0.18690   1.00
H2       0.90773    0.59780    0.27714   1.00
H2       0.88270    0.56505    0.22772   1.00
C6       0.88395    0.55173    0.31394   1.00
C6       0.91702    0.60359    0.19058   1.00
H2       0.89442    0.52461    0.32708   1.00
H2       0.94547    0.60287    0.17617   1.00
C6       0.85940    0.57395    0.34541   1.00
C6       0.88674    0.62058    0.16089   1.00
H2       0.86432    0.54267    0.29051   1.00
H2       0.92027    0.62437    0.21454   1.00
C6       0.88370    0.58245    0.38265   1.00
C6       0.88494    0.59599    0.12292   1.00
C6       0.84279    0.61277    0.32926   1.00
C6       0.84537    0.62321    0.17893   1.00
C6       0.82445    0.54778    0.35755   1.00
C6       0.89969    0.66247    0.14946   1.00
H2       0.89637    0.55568    0.39442   1.00
H2       0.91383    0.59304    0.10980   1.00
H2       0.90745    0.60270    0.37670   1.00
H2       0.87370    0.56679    0.12846   1.00
H2       0.86564    0.59549    0.40541   1.00
H2       0.86581    0.60954    0.10137   1.00
H2       0.82348    0.62664    0.35045   1.00
H2       0.82511    0.63764    0.15902   1.00
H2       0.86617    0.63333    0.32275   1.00
H2       0.83374    0.59425    0.18506   1.00
H2       0.82623    0.60771    0.30255   1.00
H2       0.84596    0.63970    0.20615   1.00
H2       0.83461    0.52008    0.36958   1.00
H2       0.92865    0.66221    0.13617   1.00
H2       0.80653    0.56197    0.37975   1.00
H2       0.87954    0.67551    0.12851   1.00
H2       0.80571    0.54140    0.33261   1.00
H2       0.90076    0.68149    0.17498   1.00
