data_IRMOF10_SG202_interpen_Ligand1lp_label_e.

_audit_creation_method             'generated by an auxiliary program of Tobunporous'

_symmetry_space_group_name_H-M     'P 1'
_symmetry_Int_Tables_number        1
_symmetry_cell_setting             triclinic

_cell_length_a                    34.2800
_cell_length_b                    34.2800
_cell_length_c                    34.2800
_cell_angle_alpha                 90.0000
_cell_angle_beta                  90.0000
_cell_angle_gamma                 90.0000

loop_
_atom_site_label
_atom_site_fract_x
_atom_site_fract_y
_atom_site_fract_z
_atom_site_occupancy
O1       0.75000    0.75000    0.75000   1.00
Zn1      0.71720    0.78280    0.78280   1.00
Zn1      0.78280    0.71720    0.78280   1.00
Zn1      0.78280    0.78280    0.71720   1.00
Zn1      0.71720    0.71720    0.71720   1.00
O2       0.72650    0.77350    0.83820   1.00
O2       0.72650    0.83820    0.77350   1.00
O2       0.66180    0.77350    0.77350   1.00
O2       0.77350    0.72650    0.83820   1.00
O2       0.83820    0.72650    0.77350   1.00
O2       0.77350    0.66180    0.77350   1.00
O2       0.77350    0.83820    0.72650   1.00
O2       0.83820    0.77350    0.72650   1.00
O2       0.77350    0.77350    0.66180   1.00
O2       0.66180    0.72650    0.72650   1.00
O2       0.72650    0.66180    0.72650   1.00
O2       0.72650    0.72650    0.66180   1.00
C1       0.75000    0.75000    0.85520   1.00
C1       0.75000    0.85520    0.75000   1.00
C1       0.64480    0.75000    0.75000   1.00
C1       0.85520    0.75000    0.75000   1.00
C1       0.75000    0.64480    0.75000   1.00
C1       0.75000    0.75000    0.64480   1.00
O1       0.25000    0.25000    0.75000   1.00
Zn1      0.21720    0.28280    0.78280   1.00
Zn1      0.28280    0.21720    0.78280   1.00
Zn1      0.28280    0.28280    0.71720   1.00
Zn1      0.21720    0.21720    0.71720   1.00
O2       0.22650    0.27350    0.83820   1.00
O2       0.22650    0.33820    0.77350   1.00
O2       0.16180    0.27350    0.77350   1.00
O2       0.27350    0.22650    0.83820   1.00
O2       0.33820    0.22650    0.77350   1.00
O2       0.27350    0.16180    0.77350   1.00
O2       0.27350    0.33820    0.72650   1.00
O2       0.33820    0.27350    0.72650   1.00
O2       0.27350    0.27350    0.66180   1.00
O2       0.16180    0.22650    0.72650   1.00
O2       0.22650    0.16180    0.72650   1.00
O2       0.22650    0.22650    0.66180   1.00
C1       0.25000    0.25000    0.85520   1.00
C1       0.25000    0.35520    0.75000   1.00
C1       0.14480    0.25000    0.75000   1.00
C1       0.35520    0.25000    0.75000   1.00
C1       0.25000    0.14480    0.75000   1.00
C1       0.25000    0.25000    0.64480   1.00
O1       0.25000    0.75000    0.25000   1.00
Zn1      0.21720    0.78280    0.28280   1.00
Zn1      0.28280    0.71720    0.28280   1.00
Zn1      0.28280    0.78280    0.21720   1.00
Zn1      0.21720    0.71720    0.21720   1.00
O2       0.22650    0.77350    0.33820   1.00
O2       0.22650    0.83820    0.27350   1.00
O2       0.16180    0.77350    0.27350   1.00
O2       0.27350    0.72650    0.33820   1.00
O2       0.33820    0.72650    0.27350   1.00
O2       0.27350    0.66180    0.27350   1.00
O2       0.27350    0.83820    0.22650   1.00
O2       0.33820    0.77350    0.22650   1.00
O2       0.27350    0.77350    0.16180   1.00
O2       0.16180    0.72650    0.22650   1.00
O2       0.22650    0.66180    0.22650   1.00
O2       0.22650    0.72650    0.16180   1.00
C1       0.25000    0.75000    0.35520   1.00
C1       0.25000    0.85520    0.25000   1.00
C1       0.14480    0.75000    0.25000   1.00
C1       0.35520    0.75000    0.25000   1.00
C1       0.25000    0.64480    0.25000   1.00
C1       0.25000    0.75000    0.14480   1.00
O1       0.75000    0.25000    0.25000   1.00
Zn1      0.71720    0.28280    0.28280   1.00
Zn1      0.78280    0.21720    0.28280   1.00
Zn1      0.78280    0.28280    0.21720   1.00
Zn1      0.71720    0.21720    0.21720   1.00
O2       0.72650    0.27350    0.33820   1.00
O2       0.72650    0.33820    0.27350   1.00
O2       0.66180    0.27350    0.27350   1.00
O2       0.77350    0.22650    0.33820   1.00
O2       0.83820    0.22650    0.27350   1.00
O2       0.77350    0.16180    0.27350   1.00
O2       0.77350    0.33820    0.22650   1.00
O2       0.83820    0.27350    0.22650   1.00
O2       0.77350    0.27350    0.16180   1.00
O2       0.66180    0.22650    0.22650   1.00
O2       0.72650    0.16180    0.22650   1.00
O2       0.72650    0.22650    0.16180   1.00
C1       0.75000    0.25000    0.35520   1.00
C1       0.75000    0.35520    0.25000   1.00
C1       0.64480    0.25000    0.25000   1.00
C1       0.85520    0.25000    0.25000   1.00
C1       0.75000    0.14480    0.25000   1.00
C1       0.75000    0.25000    0.14480   1.00
O1       0.25000    0.25000    0.25000   1.00
Zn1      0.28280    0.21720    0.21720   1.00
Zn1      0.21720    0.28280    0.21720   1.00
Zn1      0.21720    0.21720    0.28280   1.00
Zn1      0.28280    0.28280    0.28280   1.00
O2       0.27350    0.22650    0.16180   1.00
O2       0.27350    0.16180    0.22650   1.00
O2       0.33820    0.22650    0.22650   1.00
O2       0.22650    0.27350    0.16180   1.00
O2       0.16180    0.27350    0.22650   1.00
O2       0.22650    0.33820    0.22650   1.00
O2       0.22650    0.16180    0.27350   1.00
O2       0.16180    0.22650    0.27350   1.00
O2       0.22650    0.22650    0.33820   1.00
O2       0.33820    0.27350    0.27350   1.00
O2       0.27350    0.33820    0.27350   1.00
O2       0.27350    0.27350    0.33820   1.00
C1       0.25000    0.25000    0.14480   1.00
C1       0.25000    0.14480    0.25000   1.00
C1       0.35520    0.25000    0.25000   1.00
C1       0.14480    0.25000    0.25000   1.00
C1       0.25000    0.35520    0.25000   1.00
C1       0.25000    0.25000    0.35520   1.00
O1       0.75000    0.75000    0.25000   1.00
Zn1      0.78280    0.71720    0.21720   1.00
Zn1      0.71720    0.78280    0.21720   1.00
Zn1      0.71720    0.71720    0.28280   1.00
Zn1      0.78280    0.78280    0.28280   1.00
O2       0.77350    0.72650    0.16180   1.00
O2       0.77350    0.66180    0.22650   1.00
O2       0.83820    0.72650    0.22650   1.00
O2       0.72650    0.77350    0.16180   1.00
O2       0.66180    0.77350    0.22650   1.00
O2       0.72650    0.83820    0.22650   1.00
O2       0.72650    0.66180    0.27350   1.00
O2       0.66180    0.72650    0.27350   1.00
O2       0.72650    0.72650    0.33820   1.00
O2       0.83820    0.77350    0.27350   1.00
O2       0.77350    0.83820    0.27350   1.00
O2       0.77350    0.77350    0.33820   1.00
C1       0.75000    0.75000    0.14480   1.00
C1       0.75000    0.64480    0.25000   1.00
C1       0.85520    0.75000    0.25000   1.00
C1       0.64480    0.75000    0.25000   1.00
C1       0.75000    0.85520    0.25000   1.00
C1       0.75000    0.75000    0.35520   1.00
O1       0.75000    0.25000    0.75000   1.00
Zn1      0.78280    0.21720    0.71720   1.00
Zn1      0.71720    0.28280    0.71720   1.00
Zn1      0.71720    0.21720    0.78280   1.00
Zn1      0.78280    0.28280    0.78280   1.00
O2       0.77350    0.22650    0.66180   1.00
O2       0.77350    0.16180    0.72650   1.00
O2       0.83820    0.22650    0.72650   1.00
O2       0.72650    0.27350    0.66180   1.00
O2       0.66180    0.27350    0.72650   1.00
O2       0.72650    0.33820    0.72650   1.00
O2       0.72650    0.16180    0.77350   1.00
O2       0.66180    0.22650    0.77350   1.00
O2       0.72650    0.22650    0.83820   1.00
O2       0.83820    0.27350    0.77350   1.00
O2       0.77350    0.33820    0.77350   1.00
O2       0.77350    0.27350    0.83820   1.00
C1       0.75000    0.25000    0.64480   1.00
C1       0.75000    0.14480    0.75000   1.00
C1       0.85520    0.25000    0.75000   1.00
C1       0.64480    0.25000    0.75000   1.00
C1       0.75000    0.35520    0.75000   1.00
C1       0.75000    0.25000    0.85520   1.00
O1       0.25000    0.75000    0.75000   1.00
Zn1      0.28280    0.71720    0.71720   1.00
Zn1      0.21720    0.78280    0.71720   1.00
Zn1      0.21720    0.71720    0.78280   1.00
Zn1      0.28280    0.78280    0.78280   1.00
O2       0.27350    0.72650    0.66180   1.00
O2       0.27350    0.66180    0.72650   1.00
O2       0.33820    0.72650    0.72650   1.00
O2       0.22650    0.77350    0.66180   1.00
O2       0.16180    0.77350    0.72650   1.00
O2       0.22650    0.83820    0.72650   1.00
O2       0.22650    0.66180    0.77350   1.00
O2       0.16180    0.72650    0.77350   1.00
O2       0.22650    0.72650    0.83820   1.00
O2       0.33820    0.77350    0.77350   1.00
O2       0.27350    0.83820    0.77350   1.00
O2       0.27350    0.77350    0.83820   1.00
C1       0.25000    0.75000    0.64480   1.00
C1       0.25000    0.64480    0.75000   1.00
C1       0.35520    0.75000    0.75000   1.00
C1       0.14480    0.75000    0.75000   1.00
C1       0.25000    0.85520    0.75000   1.00
C1       0.25000    0.75000    0.85520   1.00
O1       1.00000    1.00000    1.00000   1.00
Zn1      0.96720    1.03280    1.03280   1.00
Zn1      1.03280    0.96720    1.03280   1.00
Zn1      1.03280    1.03280    0.96720   1.00
Zn1      0.96720    0.96720    0.96720   1.00
O2       0.97650    1.02350    1.08820   1.00
O2       0.97650    1.08820    1.02350   1.00
O2       0.91180    1.02350    1.02350   1.00
O2       1.02350    0.97650    1.08820   1.00
O2       1.08820    0.97650    1.02350   1.00
O2       1.02350    0.91180    1.02350   1.00
O2       1.02350    1.08820    0.97650   1.00
O2       1.08820    1.02350    0.97650   1.00
O2       1.02350    1.02350    0.91180   1.00
O2       0.91180    0.97650    0.97650   1.00
O2       0.97650    0.91180    0.97650   1.00
O2       0.97650    0.97650    0.91180   1.00
C1       1.00000    1.00000    1.10520   1.00
C1       1.00000    1.10520    1.00000   1.00
C1       0.89480    1.00000    1.00000   1.00
C1       1.10520    1.00000    1.00000   1.00
C1       1.00000    0.89480    1.00000   1.00
C1       1.00000    1.00000    0.89480   1.00
O1       0.50000    0.50000    1.00000   1.00
Zn1      0.46720    0.53280    1.03280   1.00
Zn1      0.53280    0.46720    1.03280   1.00
Zn1      0.53280    0.53280    0.96720   1.00
Zn1      0.46720    0.46720    0.96720   1.00
O2       0.47650    0.52350    1.08820   1.00
O2       0.47650    0.58820    1.02350   1.00
O2       0.41180    0.52350    1.02350   1.00
O2       0.52350    0.47650    1.08820   1.00
O2       0.58820    0.47650    1.02350   1.00
O2       0.52350    0.41180    1.02350   1.00
O2       0.52350    0.58820    0.97650   1.00
O2       0.58820    0.52350    0.97650   1.00
O2       0.52350    0.52350    0.91180   1.00
O2       0.41180    0.47650    0.97650   1.00
O2       0.47650    0.41180    0.97650   1.00
O2       0.47650    0.47650    0.91180   1.00
C1       0.50000    0.50000    1.10520   1.00
C1       0.50000    0.60520    1.00000   1.00
C1       0.39480    0.50000    1.00000   1.00
C1       0.60520    0.50000    1.00000   1.00
C1       0.50000    0.39480    1.00000   1.00
C1       0.50000    0.50000    0.89480   1.00
O1       0.50000    1.00000    0.50000   1.00
Zn1      0.46720    1.03280    0.53280   1.00
Zn1      0.53280    0.96720    0.53280   1.00
Zn1      0.53280    1.03280    0.46720   1.00
Zn1      0.46720    0.96720    0.46720   1.00
O2       0.47650    1.02350    0.58820   1.00
O2       0.47650    1.08820    0.52350   1.00
O2       0.41180    1.02350    0.52350   1.00
O2       0.52350    0.97650    0.58820   1.00
O2       0.58820    0.97650    0.52350   1.00
O2       0.52350    0.91180    0.52350   1.00
O2       0.52350    1.08820    0.47650   1.00
O2       0.58820    1.02350    0.47650   1.00
O2       0.52350    1.02350    0.41180   1.00
O2       0.41180    0.97650    0.47650   1.00
O2       0.47650    0.91180    0.47650   1.00
O2       0.47650    0.97650    0.41180   1.00
C1       0.50000    1.00000    0.60520   1.00
C1       0.50000    1.10520    0.50000   1.00
C1       0.39480    1.00000    0.50000   1.00
C1       0.60520    1.00000    0.50000   1.00
C1       0.50000    0.89480    0.50000   1.00
C1       0.50000    1.00000    0.39480   1.00
O1       1.00000    0.50000    0.50000   1.00
Zn1      0.96720    0.53280    0.53280   1.00
Zn1      1.03280    0.46720    0.53280   1.00
Zn1      1.03280    0.53280    0.46720   1.00
Zn1      0.96720    0.46720    0.46720   1.00
O2       0.97650    0.52350    0.58820   1.00
O2       0.97650    0.58820    0.52350   1.00
O2       0.91180    0.52350    0.52350   1.00
O2       1.02350    0.47650    0.58820   1.00
O2       1.08820    0.47650    0.52350   1.00
O2       1.02350    0.41180    0.52350   1.00
O2       1.02350    0.58820    0.47650   1.00
O2       1.08820    0.52350    0.47650   1.00
O2       1.02350    0.52350    0.41180   1.00
O2       0.91180    0.47650    0.47650   1.00
O2       0.97650    0.41180    0.47650   1.00
O2       0.97650    0.47650    0.41180   1.00
C1       1.00000    0.50000    0.60520   1.00
C1       1.00000    0.60520    0.50000   1.00
C1       0.89480    0.50000    0.50000   1.00
C1       1.10520    0.50000    0.50000   1.00
C1       1.00000    0.39480    0.50000   1.00
C1       1.00000    0.50000    0.39480   1.00
O1       0.50000    0.50000    0.50000   1.00
Zn1      0.53280    0.46720    0.46720   1.00
Zn1      0.46720    0.53280    0.46720   1.00
Zn1      0.46720    0.46720    0.53280   1.00
Zn1      0.53280    0.53280    0.53280   1.00
O2       0.52350    0.47650    0.41180   1.00
O2       0.52350    0.41180    0.47650   1.00
O2       0.58820    0.47650    0.47650   1.00
O2       0.47650    0.52350    0.41180   1.00
O2       0.41180    0.52350    0.47650   1.00
O2       0.47650    0.58820    0.47650   1.00
O2       0.47650    0.41180    0.52350   1.00
O2       0.41180    0.47650    0.52350   1.00
O2       0.47650    0.47650    0.58820   1.00
O2       0.58820    0.52350    0.52350   1.00
O2       0.52350    0.58820    0.52350   1.00
O2       0.52350    0.52350    0.58820   1.00
C1       0.50000    0.50000    0.39480   1.00
C1       0.50000    0.39480    0.50000   1.00
C1       0.60520    0.50000    0.50000   1.00
C1       0.39480    0.50000    0.50000   1.00
C1       0.50000    0.60520    0.50000   1.00
C1       0.50000    0.50000    0.60520   1.00
O1       1.00000    1.00000    0.50000   1.00
Zn1      1.03280    0.96720    0.46720   1.00
Zn1      0.96720    1.03280    0.46720   1.00
Zn1      0.96720    0.96720    0.53280   1.00
Zn1      1.03280    1.03280    0.53280   1.00
O2       1.02350    0.97650    0.41180   1.00
O2       1.02350    0.91180    0.47650   1.00
O2       1.08820    0.97650    0.47650   1.00
O2       0.97650    1.02350    0.41180   1.00
O2       0.91180    1.02350    0.47650   1.00
O2       0.97650    1.08820    0.47650   1.00
O2       0.97650    0.91180    0.52350   1.00
O2       0.91180    0.97650    0.52350   1.00
O2       0.97650    0.97650    0.58820   1.00
O2       1.08820    1.02350    0.52350   1.00
O2       1.02350    1.08820    0.52350   1.00
O2       1.02350    1.02350    0.58820   1.00
C1       1.00000    1.00000    0.39480   1.00
C1       1.00000    0.89480    0.50000   1.00
C1       1.10520    1.00000    0.50000   1.00
C1       0.89480    1.00000    0.50000   1.00
C1       1.00000    1.10520    0.50000   1.00
C1       1.00000    1.00000    0.60520   1.00
O1       1.00000    0.50000    1.00000   1.00
Zn1      1.03280    0.46720    0.96720   1.00
Zn1      0.96720    0.53280    0.96720   1.00
Zn1      0.96720    0.46720    1.03280   1.00
Zn1      1.03280    0.53280    1.03280   1.00
O2       1.02350    0.47650    0.91180   1.00
O2       1.02350    0.41180    0.97650   1.00
O2       1.08820    0.47650    0.97650   1.00
O2       0.97650    0.52350    0.91180   1.00
O2       0.91180    0.52350    0.97650   1.00
O2       0.97650    0.58820    0.97650   1.00
O2       0.97650    0.41180    1.02350   1.00
O2       0.91180    0.47650    1.02350   1.00
O2       0.97650    0.47650    1.08820   1.00
O2       1.08820    0.52350    1.02350   1.00
O2       1.02350    0.58820    1.02350   1.00
O2       1.02350    0.52350    1.08820   1.00
C1       1.00000    0.50000    0.89480   1.00
C1       1.00000    0.39480    1.00000   1.00
C1       1.10520    0.50000    1.00000   1.00
C1       0.89480    0.50000    1.00000   1.00
C1       1.00000    0.60520    1.00000   1.00
C1       1.00000    0.50000    1.10520   1.00
O1       0.50000    1.00000    1.00000   1.00
Zn1      0.53280    0.96720    0.96720   1.00
Zn1      0.46720    1.03280    0.96720   1.00
Zn1      0.46720    0.96720    1.03280   1.00
Zn1      0.53280    1.03280    1.03280   1.00
O2       0.52350    0.97650    0.91180   1.00
O2       0.52350    0.91180    0.97650   1.00
O2       0.58820    0.97650    0.97650   1.00
O2       0.47650    1.02350    0.91180   1.00
O2       0.41180    1.02350    0.97650   1.00
O2       0.47650    1.08820    0.97650   1.00
O2       0.47650    0.91180    1.02350   1.00
O2       0.41180    0.97650    1.02350   1.00
O2       0.47650    0.97650    1.08820   1.00
O2       0.58820    1.02350    1.02350   1.00
O2       0.52350    1.08820    1.02350   1.00
O2       0.52350    1.02350    1.08820   1.00
C1       0.50000    1.00000    0.89480   1.00
C1       0.50000    0.89480    1.00000   1.00
C1       0.60520    1.00000    1.00000   1.00
C1       0.39480    1.00000    1.00000   1.00
C1       0.50000    1.10520    1.00000   1.00
C1       0.50000    1.00000    1.10520   1.00
C5       0.79850    0.86739    1.13227   1.00
H2       0.76995    0.86851    1.14755   1.00
H2       0.79813    0.89184    1.11099   1.00
C5       0.83185    0.87305    1.16219   1.00
H2       0.83610    0.90455    1.16890   1.00
H2       0.85956    0.86089    1.15040   1.00
O_3      0.81905    0.73455    0.98000   1.00
C4       0.74956    0.74996    1.02100   1.00
C3c      0.75656    0.78418    1.04243   1.00
H1       0.76199    0.81129    1.02725   1.00
C3d      0.74199    0.71506    1.04135   1.00
C3       0.75723    0.78395    1.08354   1.00
O2       0.75951    0.81929    1.10248   1.00
C3       0.74337    0.71457    1.08227   1.00
H1       0.73876    0.68684    1.09657   1.00
C2       0.75083    0.74882    1.10439   1.00
C5       0.82820    0.69440    0.97879   1.00
H2       0.83247    0.68367    0.94838   1.00
H2       0.80472    0.67660    0.99266   1.00
C5       0.86600    0.68856    1.00122   1.00
H2       0.86208    0.70029    1.03129   1.00
H2       0.88930    0.70617    0.98691   1.00
C5       0.87740    0.64530    1.00254   1.00
H2       0.88109    0.63334    0.97260   1.00
H2       0.85478    0.62790    1.01803   1.00
H2       0.90553    0.64171    1.01830   1.00
C5       0.69841    0.67489    1.01105   1.00
C5       0.79894    0.82826    1.11070   1.00
H2       0.68850    0.69830    0.99088   1.00
H2       0.67891    0.67462    1.03712   1.00
H2       0.81586    0.83083    1.08300   1.00
H2       0.81342    0.80539    1.12895   1.00
H2       0.82490    0.85848    1.19055   1.00
H2       0.65508    0.65190    0.94250   1.00
H2       0.63115    0.63769    0.98766   1.00
C2       0.75149    0.74790    0.89605   1.00
C3       0.71679    0.75774    0.91597   1.00
O2       0.68143    0.75719    0.89674   1.00
C3       0.78556    0.74077    0.91826   1.00
H1       0.81282    0.73417    0.90385   1.00
C3a      0.71663    0.75922    0.95713   1.00
H1       0.68933    0.76460    0.97202   1.00
C3b      0.78500    0.74105    0.95922   1.00
C4       0.75035    0.75023    0.97900   1.00
O_3      0.73786    0.68004    1.02167   1.00
C5       0.66981    0.79552    0.88720   1.00
H2       0.66673    0.81394    0.91391   1.00
C5       0.63026    0.79248    0.86666   1.00
H2       0.69132    0.80959    0.86726   1.00
H2       0.60721    0.78865    0.88923   1.00
H2       0.63055    0.76519    0.84899   1.00
C5       0.62119    0.82809    0.84069   1.00
H2       0.62407    0.85529    0.85811   1.00
H2       0.59096    0.82636    0.82891   1.00
H2       0.64119    0.82946    0.81494   1.00
C5       0.69517    0.63579    0.99020   1.00
H2       0.69852    0.61209    1.01218   1.00
H2       0.72015    0.63316    0.96955   1.00
C5       0.65631    0.63170    0.96803   1.00
H2       0.65320    0.60149    0.95666   1.00
C5       0.86739    1.13227    0.79850   1.00
H2       0.86851    1.14755    0.76995   1.00
H2       0.89184    1.11099    0.79813   1.00
C5       0.87305    1.16219    0.83185   1.00
H2       0.90455    1.16890    0.83610   1.00
H2       0.86089    1.15040    0.85956   1.00
O_3      0.73455    0.98000    0.81905   1.00
C4       0.74996    1.02100    0.74956   1.00
C3c      0.78418    1.04243    0.75656   1.00
H1       0.81129    1.02725    0.76199   1.00
C3d      0.71506    1.04135    0.74199   1.00
C3       0.78395    1.08354    0.75723   1.00
O2       0.81929    1.10248    0.75951   1.00
C3       0.71457    1.08227    0.74337   1.00
H1       0.68684    1.09657    0.73876   1.00
C2       0.74882    1.10439    0.75083   1.00
C5       0.69440    0.97879    0.82820   1.00
H2       0.68367    0.94838    0.83247   1.00
H2       0.67660    0.99266    0.80472   1.00
C5       0.68856    1.00122    0.86600   1.00
H2       0.70029    1.03129    0.86208   1.00
H2       0.70617    0.98691    0.88930   1.00
C5       0.64530    1.00254    0.87740   1.00
H2       0.63334    0.97260    0.88109   1.00
H2       0.62790    1.01803    0.85478   1.00
H2       0.64171    1.01830    0.90553   1.00
C5       0.67489    1.01105    0.69841   1.00
C5       0.82826    1.11070    0.79894   1.00
H2       0.69830    0.99088    0.68850   1.00
H2       0.67462    1.03712    0.67891   1.00
H2       0.83083    1.08300    0.81586   1.00
H2       0.80539    1.12895    0.81342   1.00
H2       0.85848    1.19055    0.82490   1.00
H2       0.65190    0.94250    0.65508   1.00
H2       0.63769    0.98766    0.63115   1.00
C2       0.74790    0.89605    0.75149   1.00
C3       0.75774    0.91597    0.71679   1.00
O2       0.75719    0.89674    0.68143   1.00
C3       0.74077    0.91826    0.78556   1.00
H1       0.73417    0.90385    0.81282   1.00
C3a      0.75922    0.95713    0.71663   1.00
H1       0.76460    0.97202    0.68933   1.00
C3b      0.74105    0.95922    0.78500   1.00
C4       0.75023    0.97900    0.75035   1.00
O_3      0.68004    1.02167    0.73786   1.00
C5       0.79552    0.88720    0.66981   1.00
H2       0.81394    0.91391    0.66673   1.00
C5       0.79248    0.86666    0.63026   1.00
H2       0.80959    0.86726    0.69132   1.00
H2       0.78865    0.88923    0.60721   1.00
H2       0.76519    0.84899    0.63055   1.00
C5       0.82809    0.84069    0.62119   1.00
H2       0.85529    0.85811    0.62407   1.00
H2       0.82636    0.82891    0.59096   1.00
H2       0.82946    0.81494    0.64119   1.00
C5       0.63579    0.99020    0.69517   1.00
H2       0.61209    1.01218    0.69852   1.00
H2       0.63316    0.96955    0.72015   1.00
C5       0.63170    0.96803    0.65631   1.00
H2       0.60149    0.95666    0.65320   1.00
C5       0.36773    0.79850    0.63261   1.00
H2       0.35245    0.76995    0.63149   1.00
H2       0.38901    0.79813    0.60816   1.00
C5       0.33781    0.83185    0.62695   1.00
H2       0.33110    0.83610    0.59545   1.00
H2       0.34960    0.85956    0.63911   1.00
O_3      0.52000    0.81905    0.76545   1.00
C4       0.47900    0.74956    0.75004   1.00
C3c      0.45757    0.75656    0.71582   1.00
H1       0.47275    0.76199    0.68871   1.00
C3d      0.45865    0.74199    0.78494   1.00
C3       0.41646    0.75723    0.71605   1.00
O2       0.39752    0.75951    0.68071   1.00
C3       0.41773    0.74337    0.78543   1.00
H1       0.40343    0.73876    0.81316   1.00
C2       0.39561    0.75083    0.75118   1.00
C5       0.52121    0.82820    0.80560   1.00
H2       0.55162    0.83247    0.81633   1.00
H2       0.50734    0.80472    0.82340   1.00
C5       0.49878    0.86600    0.81144   1.00
H2       0.46871    0.86208    0.79971   1.00
H2       0.51309    0.88930    0.79383   1.00
C5       0.49746    0.87740    0.85470   1.00
H2       0.52740    0.88109    0.86666   1.00
H2       0.48197    0.85478    0.87210   1.00
H2       0.48170    0.90553    0.85829   1.00
C5       0.48895    0.69841    0.82511   1.00
C5       0.38930    0.79894    0.67174   1.00
H2       0.50912    0.68850    0.80170   1.00
H2       0.46288    0.67891    0.82538   1.00
H2       0.41700    0.81586    0.66917   1.00
H2       0.37105    0.81342    0.69461   1.00
H2       0.30945    0.82490    0.64152   1.00
H2       0.55750    0.65508    0.84810   1.00
H2       0.51234    0.63115    0.86231   1.00
C2       0.60395    0.75149    0.75210   1.00
C3       0.58403    0.71679    0.74226   1.00
O2       0.60326    0.68143    0.74281   1.00
C3       0.58174    0.78556    0.75923   1.00
H1       0.59615    0.81282    0.76583   1.00
C3a      0.54287    0.71663    0.74078   1.00
H1       0.52798    0.68933    0.73540   1.00
C3b      0.54078    0.78500    0.75895   1.00
C4       0.52100    0.75035    0.74977   1.00
O_3      0.47833    0.73786    0.81996   1.00
C5       0.61280    0.66981    0.70448   1.00
H2       0.58609    0.66673    0.68606   1.00
C5       0.63334    0.63026    0.70752   1.00
H2       0.63274    0.69132    0.69041   1.00
H2       0.61077    0.60721    0.71135   1.00
H2       0.65101    0.63055    0.73481   1.00
C5       0.65931    0.62119    0.67191   1.00
H2       0.64189    0.62407    0.64471   1.00
H2       0.67109    0.59096    0.67364   1.00
H2       0.68506    0.64119    0.67054   1.00
C5       0.50980    0.69517    0.86421   1.00
H2       0.48782    0.69852    0.88791   1.00
H2       0.53045    0.72015    0.86684   1.00
C5       0.53197    0.65631    0.86830   1.00
H2       0.54334    0.65320    0.89851   1.00
C5       1.13227    0.79850    0.86739   1.00
H2       1.14755    0.76995    0.86851   1.00
H2       1.11099    0.79813    0.89184   1.00
C5       1.16219    0.83185    0.87305   1.00
H2       1.16890    0.83610    0.90455   1.00
H2       1.15040    0.85956    0.86089   1.00
O_3      0.98000    0.81905    0.73455   1.00
C4       1.02100    0.74956    0.74996   1.00
C3c      1.04243    0.75656    0.78418   1.00
H1       1.02725    0.76199    0.81129   1.00
C3d      1.04135    0.74199    0.71506   1.00
C3       1.08354    0.75723    0.78395   1.00
O2       1.10248    0.75951    0.81929   1.00
C3       1.08227    0.74337    0.71457   1.00
H1       1.09657    0.73876    0.68684   1.00
C2       1.10439    0.75083    0.74882   1.00
C5       0.97879    0.82820    0.69440   1.00
H2       0.94838    0.83247    0.68367   1.00
H2       0.99266    0.80472    0.67660   1.00
C5       1.00122    0.86600    0.68856   1.00
H2       1.03129    0.86208    0.70029   1.00
H2       0.98691    0.88930    0.70617   1.00
C5       1.00254    0.87740    0.64530   1.00
H2       0.97260    0.88109    0.63334   1.00
H2       1.01803    0.85478    0.62790   1.00
H2       1.01830    0.90553    0.64171   1.00
C5       1.01105    0.69841    0.67489   1.00
C5       1.11070    0.79894    0.82826   1.00
H2       0.99088    0.68850    0.69830   1.00
H2       1.03712    0.67891    0.67462   1.00
H2       1.08300    0.81586    0.83083   1.00
H2       1.12895    0.81342    0.80539   1.00
H2       1.19055    0.82490    0.85848   1.00
H2       0.94250    0.65508    0.65190   1.00
H2       0.98766    0.63115    0.63769   1.00
C2       0.89605    0.75149    0.74790   1.00
C3       0.91597    0.71679    0.75774   1.00
O2       0.89674    0.68143    0.75719   1.00
C3       0.91826    0.78556    0.74077   1.00
H1       0.90385    0.81282    0.73417   1.00
C3a      0.95713    0.71663    0.75922   1.00
H1       0.97202    0.68933    0.76460   1.00
C3b      0.95922    0.78500    0.74105   1.00
C4       0.97900    0.75035    0.75023   1.00
O_3      1.02167    0.73786    0.68004   1.00
C5       0.88720    0.66981    0.79552   1.00
H2       0.91391    0.66673    0.81394   1.00
C5       0.86666    0.63026    0.79248   1.00
H2       0.86726    0.69132    0.80959   1.00
H2       0.88923    0.60721    0.78865   1.00
H2       0.84899    0.63055    0.76519   1.00
C5       0.84069    0.62119    0.82809   1.00
H2       0.85811    0.62407    0.85529   1.00
H2       0.82891    0.59096    0.82636   1.00
H2       0.81494    0.64119    0.82946   1.00
C5       0.99020    0.69517    0.63579   1.00
H2       1.01218    0.69852    0.61209   1.00
H2       0.96955    0.72015    0.63316   1.00
C5       0.96803    0.65631    0.63170   1.00
H2       0.95666    0.65320    0.60149   1.00
C5       0.63261    0.36773    0.79850   1.00
H2       0.63149    0.35245    0.76995   1.00
H2       0.60816    0.38901    0.79813   1.00
C5       0.62695    0.33781    0.83185   1.00
H2       0.59545    0.33110    0.83610   1.00
H2       0.63911    0.34960    0.85956   1.00
O_3      0.76545    0.52000    0.81905   1.00
C4       0.75004    0.47900    0.74956   1.00
C3c      0.71582    0.45757    0.75656   1.00
H1       0.68871    0.47275    0.76199   1.00
C3d      0.78494    0.45865    0.74199   1.00
C3       0.71605    0.41646    0.75723   1.00
O2       0.68071    0.39752    0.75951   1.00
C3       0.78543    0.41773    0.74337   1.00
H1       0.81316    0.40343    0.73876   1.00
C2       0.75118    0.39561    0.75083   1.00
C5       0.80560    0.52121    0.82820   1.00
H2       0.81633    0.55162    0.83247   1.00
H2       0.82340    0.50734    0.80472   1.00
C5       0.81144    0.49878    0.86600   1.00
H2       0.79971    0.46871    0.86208   1.00
H2       0.79383    0.51309    0.88930   1.00
C5       0.85470    0.49746    0.87740   1.00
H2       0.86666    0.52740    0.88109   1.00
H2       0.87210    0.48197    0.85478   1.00
H2       0.85829    0.48170    0.90553   1.00
C5       0.82511    0.48895    0.69841   1.00
C5       0.67174    0.38930    0.79894   1.00
H2       0.80170    0.50912    0.68850   1.00
H2       0.82538    0.46288    0.67891   1.00
H2       0.66917    0.41700    0.81586   1.00
H2       0.69461    0.37105    0.81342   1.00
H2       0.64152    0.30945    0.82490   1.00
H2       0.84810    0.55750    0.65508   1.00
H2       0.86231    0.51234    0.63115   1.00
C2       0.75210    0.60395    0.75149   1.00
C3       0.74226    0.58403    0.71679   1.00
O2       0.74281    0.60326    0.68143   1.00
C3       0.75923    0.58174    0.78556   1.00
H1       0.76583    0.59615    0.81282   1.00
C3a      0.74078    0.54287    0.71663   1.00
H1       0.73540    0.52798    0.68933   1.00
C3b      0.75895    0.54078    0.78500   1.00
C4       0.74977    0.52100    0.75035   1.00
O_3      0.81996    0.47833    0.73786   1.00
C5       0.70448    0.61280    0.66981   1.00
H2       0.68606    0.58609    0.66673   1.00
C5       0.70752    0.63334    0.63026   1.00
H2       0.69041    0.63274    0.69132   1.00
H2       0.71135    0.61077    0.60721   1.00
H2       0.73481    0.65101    0.63055   1.00
C5       0.67191    0.65931    0.62119   1.00
H2       0.64471    0.64189    0.62407   1.00
H2       0.67364    0.67109    0.59096   1.00
H2       0.67054    0.68506    0.64119   1.00
C5       0.86421    0.50980    0.69517   1.00
H2       0.88791    0.48782    0.69852   1.00
H2       0.86684    0.53045    0.72015   1.00
C5       0.86830    0.53197    0.65631   1.00
H2       0.89851    0.54334    0.65320   1.00
C5       0.79850    0.63261    0.36773   1.00
H2       0.76995    0.63149    0.35245   1.00
H2       0.79813    0.60816    0.38901   1.00
C5       0.83185    0.62695    0.33781   1.00
H2       0.83610    0.59545    0.33110   1.00
H2       0.85956    0.63911    0.34960   1.00
O_3      0.81905    0.76545    0.52000   1.00
C4       0.74956    0.75004    0.47900   1.00
C3c      0.75656    0.71582    0.45757   1.00
H1       0.76199    0.68871    0.47275   1.00
C3d      0.74199    0.78494    0.45865   1.00
C3       0.75723    0.71605    0.41646   1.00
O2       0.75951    0.68071    0.39752   1.00
C3       0.74337    0.78543    0.41773   1.00
H1       0.73876    0.81316    0.40343   1.00
C2       0.75083    0.75118    0.39561   1.00
C5       0.82820    0.80560    0.52121   1.00
H2       0.83247    0.81633    0.55162   1.00
H2       0.80472    0.82340    0.50734   1.00
C5       0.86600    0.81144    0.49878   1.00
H2       0.86208    0.79971    0.46871   1.00
H2       0.88930    0.79383    0.51309   1.00
C5       0.87740    0.85470    0.49746   1.00
H2       0.88109    0.86666    0.52740   1.00
H2       0.85478    0.87210    0.48197   1.00
H2       0.90553    0.85829    0.48170   1.00
C5       0.69841    0.82511    0.48895   1.00
C5       0.79894    0.67174    0.38930   1.00
H2       0.68850    0.80170    0.50912   1.00
H2       0.67891    0.82538    0.46288   1.00
H2       0.81586    0.66917    0.41700   1.00
H2       0.81342    0.69461    0.37105   1.00
H2       0.82490    0.64152    0.30945   1.00
H2       0.65508    0.84810    0.55750   1.00
H2       0.63115    0.86231    0.51234   1.00
C2       0.75149    0.75210    0.60395   1.00
C3       0.71679    0.74226    0.58403   1.00
O2       0.68143    0.74281    0.60326   1.00
C3       0.78556    0.75923    0.58174   1.00
H1       0.81282    0.76583    0.59615   1.00
C3a      0.71663    0.74078    0.54287   1.00
H1       0.68933    0.73540    0.52798   1.00
C3b      0.78500    0.75895    0.54078   1.00
C4       0.75035    0.74977    0.52100   1.00
O_3      0.73786    0.81996    0.47833   1.00
C5       0.66981    0.70448    0.61280   1.00
H2       0.66673    0.68606    0.58609   1.00
C5       0.63026    0.70752    0.63334   1.00
H2       0.69132    0.69041    0.63274   1.00
H2       0.60721    0.71135    0.61077   1.00
H2       0.63055    0.73481    0.65101   1.00
C5       0.62119    0.67191    0.65931   1.00
H2       0.62407    0.64471    0.64189   1.00
H2       0.59096    0.67364    0.67109   1.00
H2       0.64119    0.67054    0.68506   1.00
C5       0.69517    0.86421    0.50980   1.00
H2       0.69852    0.88791    0.48782   1.00
H2       0.72015    0.86684    0.53045   1.00
C5       0.65631    0.86830    0.53197   1.00
H2       0.65320    0.89851    0.54334   1.00
C5       0.29850    0.36739    1.13227   1.00
H2       0.26995    0.36851    1.14755   1.00
H2       0.29813    0.39184    1.11099   1.00
C5       0.33185    0.37305    1.16219   1.00
H2       0.33610    0.40455    1.16890   1.00
H2       0.35956    0.36089    1.15040   1.00
O_3      0.31905    0.23455    0.98000   1.00
C4       0.24956    0.24996    1.02100   1.00
C3c      0.25656    0.28418    1.04243   1.00
H1       0.26199    0.31129    1.02725   1.00
C3d      0.24199    0.21506    1.04135   1.00
C3       0.25723    0.28395    1.08354   1.00
O2       0.25951    0.31929    1.10248   1.00
C3       0.24337    0.21457    1.08227   1.00
H1       0.23876    0.18684    1.09657   1.00
C2       0.25083    0.24882    1.10439   1.00
C5       0.32820    0.19440    0.97879   1.00
H2       0.33247    0.18367    0.94838   1.00
H2       0.30472    0.17660    0.99266   1.00
C5       0.36600    0.18856    1.00122   1.00
H2       0.36208    0.20029    1.03129   1.00
H2       0.38930    0.20617    0.98691   1.00
C5       0.37740    0.14530    1.00254   1.00
H2       0.38109    0.13334    0.97260   1.00
H2       0.35478    0.12790    1.01803   1.00
H2       0.40553    0.14171    1.01830   1.00
C5       0.19841    0.17489    1.01105   1.00
C5       0.29894    0.32826    1.11070   1.00
H2       0.18850    0.19830    0.99088   1.00
H2       0.17891    0.17462    1.03712   1.00
H2       0.31586    0.33083    1.08300   1.00
H2       0.31342    0.30539    1.12895   1.00
H2       0.32490    0.35848    1.19055   1.00
H2       0.15508    0.15190    0.94250   1.00
H2       0.13115    0.13769    0.98766   1.00
C2       0.25149    0.24790    0.89605   1.00
C3       0.21679    0.25774    0.91597   1.00
O2       0.18143    0.25719    0.89674   1.00
C3       0.28556    0.24077    0.91826   1.00
H1       0.31282    0.23417    0.90385   1.00
C3a      0.21663    0.25922    0.95713   1.00
H1       0.18933    0.26460    0.97202   1.00
C3b      0.28500    0.24105    0.95922   1.00
C4       0.25035    0.25023    0.97900   1.00
O_3      0.23786    0.18004    1.02167   1.00
C5       0.16981    0.29552    0.88720   1.00
H2       0.16673    0.31394    0.91391   1.00
C5       0.13026    0.29248    0.86666   1.00
H2       0.19132    0.30959    0.86726   1.00
H2       0.10721    0.28865    0.88923   1.00
H2       0.13055    0.26519    0.84899   1.00
C5       0.12119    0.32809    0.84069   1.00
H2       0.12407    0.35529    0.85811   1.00
H2       0.09096    0.32636    0.82891   1.00
H2       0.14119    0.32946    0.81494   1.00
C5       0.19517    0.13579    0.99020   1.00
H2       0.19852    0.11209    1.01218   1.00
H2       0.22015    0.13316    0.96955   1.00
C5       0.15631    0.13170    0.96803   1.00
H2       0.15320    0.10149    0.95666   1.00
C5       0.36739    0.63227    0.79850   1.00
H2       0.36851    0.64755    0.76995   1.00
H2       0.39184    0.61099    0.79813   1.00
C5       0.37305    0.66219    0.83185   1.00
H2       0.40455    0.66890    0.83610   1.00
H2       0.36089    0.65040    0.85956   1.00
O_3      0.23455    0.48000    0.81905   1.00
C4       0.24996    0.52100    0.74956   1.00
C3c      0.28418    0.54243    0.75656   1.00
H1       0.31129    0.52725    0.76199   1.00
C3d      0.21506    0.54135    0.74199   1.00
C3       0.28395    0.58354    0.75723   1.00
O2       0.31929    0.60248    0.75951   1.00
C3       0.21457    0.58227    0.74337   1.00
H1       0.18684    0.59657    0.73876   1.00
C2       0.24882    0.60439    0.75083   1.00
C5       0.19440    0.47879    0.82820   1.00
H2       0.18367    0.44838    0.83247   1.00
H2       0.17660    0.49266    0.80472   1.00
C5       0.18856    0.50122    0.86600   1.00
H2       0.20029    0.53129    0.86208   1.00
H2       0.20617    0.48691    0.88930   1.00
C5       0.14530    0.50254    0.87740   1.00
H2       0.13334    0.47260    0.88109   1.00
H2       0.12790    0.51803    0.85478   1.00
H2       0.14171    0.51830    0.90553   1.00
C5       0.17489    0.51105    0.69841   1.00
C5       0.32826    0.61070    0.79894   1.00
H2       0.19830    0.49088    0.68850   1.00
H2       0.17462    0.53712    0.67891   1.00
H2       0.33083    0.58300    0.81586   1.00
H2       0.30539    0.62895    0.81342   1.00
H2       0.35848    0.69055    0.82490   1.00
H2       0.15190    0.44250    0.65508   1.00
H2       0.13769    0.48766    0.63115   1.00
C2       0.24790    0.39605    0.75149   1.00
C3       0.25774    0.41597    0.71679   1.00
O2       0.25719    0.39674    0.68143   1.00
C3       0.24077    0.41826    0.78556   1.00
H1       0.23417    0.40385    0.81282   1.00
C3a      0.25922    0.45713    0.71663   1.00
H1       0.26460    0.47202    0.68933   1.00
C3b      0.24105    0.45922    0.78500   1.00
C4       0.25023    0.47900    0.75035   1.00
O_3      0.18004    0.52167    0.73786   1.00
C5       0.29552    0.38720    0.66981   1.00
H2       0.31394    0.41391    0.66673   1.00
C5       0.29248    0.36666    0.63026   1.00
H2       0.30959    0.36726    0.69132   1.00
H2       0.28865    0.38923    0.60721   1.00
H2       0.26519    0.34899    0.63055   1.00
C5       0.32809    0.34069    0.62119   1.00
H2       0.35529    0.35811    0.62407   1.00
H2       0.32636    0.32891    0.59096   1.00
H2       0.32946    0.31494    0.64119   1.00
C5       0.13579    0.49020    0.69517   1.00
H2       0.11209    0.51218    0.69852   1.00
H2       0.13316    0.46955    0.72015   1.00
C5       0.13170    0.46803    0.65631   1.00
H2       0.10149    0.45666    0.65320   1.00
C5       -0.13227   0.29850    0.63261   1.00
H2       -0.14755   0.26995    0.63149   1.00
H2       -0.11099   0.29813    0.60816   1.00
C5       -0.16219   0.33185    0.62695   1.00
H2       -0.16890   0.33610    0.59545   1.00
H2       -0.15040   0.35956    0.63911   1.00
O_3      0.02000    0.31905    0.76545   1.00
C4       -0.02100   0.24956    0.75004   1.00
C3c      -0.04243   0.25656    0.71582   1.00
H1       -0.02725   0.26199    0.68871   1.00
C3d      -0.04135   0.24199    0.78494   1.00
C3       -0.08354   0.25723    0.71605   1.00
O2       -0.10248   0.25951    0.68071   1.00
C3       -0.08227   0.24337    0.78543   1.00
H1       -0.09657   0.23876    0.81316   1.00
C2       -0.10439   0.25083    0.75118   1.00
C5       0.02121    0.32820    0.80560   1.00
H2       0.05162    0.33247    0.81633   1.00
H2       0.00734    0.30472    0.82340   1.00
C5       -0.00122   0.36600    0.81144   1.00
H2       -0.03129   0.36208    0.79971   1.00
H2       0.01309    0.38930    0.79383   1.00
C5       -0.00254   0.37740    0.85470   1.00
H2       0.02740    0.38109    0.86666   1.00
H2       -0.01803   0.35478    0.87210   1.00
H2       -0.01830   0.40553    0.85829   1.00
C5       -0.01105   0.19841    0.82511   1.00
C5       -0.11070   0.29894    0.67174   1.00
H2       0.00912    0.18850    0.80170   1.00
H2       -0.03712   0.17891    0.82538   1.00
H2       -0.08300   0.31586    0.66917   1.00
H2       -0.12895   0.31342    0.69461   1.00
H2       -0.19055   0.32490    0.64152   1.00
H2       0.05750    0.15508    0.84810   1.00
H2       0.01234    0.13115    0.86231   1.00
C2       0.10395    0.25149    0.75210   1.00
C3       0.08403    0.21679    0.74226   1.00
O2       0.10326    0.18143    0.74281   1.00
C3       0.08174    0.28556    0.75923   1.00
H1       0.09615    0.31282    0.76583   1.00
C3a      0.04287    0.21663    0.74078   1.00
H1       0.02798    0.18933    0.73540   1.00
C3b      0.04078    0.28500    0.75895   1.00
C4       0.02100    0.25035    0.74977   1.00
O_3      -0.02167   0.23786    0.81996   1.00
C5       0.11280    0.16981    0.70448   1.00
H2       0.08609    0.16673    0.68606   1.00
C5       0.13334    0.13026    0.70752   1.00
H2       0.13274    0.19132    0.69041   1.00
H2       0.11077    0.10721    0.71135   1.00
H2       0.15101    0.13055    0.73481   1.00
C5       0.15931    0.12119    0.67191   1.00
H2       0.14189    0.12407    0.64471   1.00
H2       0.17109    0.09096    0.67364   1.00
H2       0.18506    0.14119    0.67054   1.00
C5       0.00980    0.19517    0.86421   1.00
H2       -0.01218   0.19852    0.88791   1.00
H2       0.03045    0.22015    0.86684   1.00
C5       0.03197    0.15631    0.86830   1.00
H2       0.04334    0.15320    0.89851   1.00
C5       0.63227    0.29850    0.86739   1.00
H2       0.64755    0.26995    0.86851   1.00
H2       0.61099    0.29813    0.89184   1.00
C5       0.66219    0.33185    0.87305   1.00
H2       0.66890    0.33610    0.90455   1.00
H2       0.65040    0.35956    0.86089   1.00
O_3      0.48000    0.31905    0.73455   1.00
C4       0.52100    0.24956    0.74996   1.00
C3c      0.54243    0.25656    0.78418   1.00
H1       0.52725    0.26199    0.81129   1.00
C3d      0.54135    0.24199    0.71506   1.00
C3       0.58354    0.25723    0.78395   1.00
O2       0.60248    0.25951    0.81929   1.00
C3       0.58227    0.24337    0.71457   1.00
H1       0.59657    0.23876    0.68684   1.00
C2       0.60439    0.25083    0.74882   1.00
C5       0.47879    0.32820    0.69440   1.00
H2       0.44838    0.33247    0.68367   1.00
H2       0.49266    0.30472    0.67660   1.00
C5       0.50122    0.36600    0.68856   1.00
H2       0.53129    0.36208    0.70029   1.00
H2       0.48691    0.38930    0.70617   1.00
C5       0.50254    0.37740    0.64530   1.00
H2       0.47260    0.38109    0.63334   1.00
H2       0.51803    0.35478    0.62790   1.00
H2       0.51830    0.40553    0.64171   1.00
C5       0.51105    0.19841    0.67489   1.00
C5       0.61070    0.29894    0.82826   1.00
H2       0.49088    0.18850    0.69830   1.00
H2       0.53712    0.17891    0.67462   1.00
H2       0.58300    0.31586    0.83083   1.00
H2       0.62895    0.31342    0.80539   1.00
H2       0.69055    0.32490    0.85848   1.00
H2       0.44250    0.15508    0.65190   1.00
H2       0.48766    0.13115    0.63769   1.00
C2       0.39605    0.25149    0.74790   1.00
C3       0.41597    0.21679    0.75774   1.00
O2       0.39674    0.18143    0.75719   1.00
C3       0.41826    0.28556    0.74077   1.00
H1       0.40385    0.31282    0.73417   1.00
C3a      0.45713    0.21663    0.75922   1.00
H1       0.47202    0.18933    0.76460   1.00
C3b      0.45922    0.28500    0.74105   1.00
C4       0.47900    0.25035    0.75023   1.00
O_3      0.52167    0.23786    0.68004   1.00
C5       0.38720    0.16981    0.79552   1.00
H2       0.41391    0.16673    0.81394   1.00
C5       0.36666    0.13026    0.79248   1.00
H2       0.36726    0.19132    0.80959   1.00
H2       0.38923    0.10721    0.78865   1.00
H2       0.34899    0.13055    0.76519   1.00
C5       0.34069    0.12119    0.82809   1.00
H2       0.35811    0.12407    0.85529   1.00
H2       0.32891    0.09096    0.82636   1.00
H2       0.31494    0.14119    0.82946   1.00
C5       0.49020    0.19517    0.63579   1.00
H2       0.51218    0.19852    0.61209   1.00
H2       0.46955    0.22015    0.63316   1.00
C5       0.46803    0.15631    0.63170   1.00
H2       0.45666    0.15320    0.60149   1.00
C5       0.13261    -0.13227   0.79850   1.00
H2       0.13149    -0.14755   0.76995   1.00
H2       0.10816    -0.11099   0.79813   1.00
C5       0.12695    -0.16219   0.83185   1.00
H2       0.09545    -0.16890   0.83610   1.00
H2       0.13911    -0.15040   0.85956   1.00
O_3      0.26545    0.02000    0.81905   1.00
C4       0.25004    -0.02100   0.74956   1.00
C3c      0.21582    -0.04243   0.75656   1.00
H1       0.18871    -0.02725   0.76199   1.00
C3d      0.28494    -0.04135   0.74199   1.00
C3       0.21605    -0.08354   0.75723   1.00
O2       0.18071    -0.10248   0.75951   1.00
C3       0.28543    -0.08227   0.74337   1.00
H1       0.31316    -0.09657   0.73876   1.00
C2       0.25118    -0.10439   0.75083   1.00
C5       0.30560    0.02121    0.82820   1.00
H2       0.31633    0.05162    0.83247   1.00
H2       0.32340    0.00734    0.80472   1.00
C5       0.31144    -0.00122   0.86600   1.00
H2       0.29971    -0.03129   0.86208   1.00
H2       0.29383    0.01309    0.88930   1.00
C5       0.35470    -0.00254   0.87740   1.00
H2       0.36666    0.02740    0.88109   1.00
H2       0.37210    -0.01803   0.85478   1.00
H2       0.35829    -0.01830   0.90553   1.00
C5       0.32511    -0.01105   0.69841   1.00
C5       0.17174    -0.11070   0.79894   1.00
H2       0.30170    0.00912    0.68850   1.00
H2       0.32538    -0.03712   0.67891   1.00
H2       0.16917    -0.08300   0.81586   1.00
H2       0.19461    -0.12895   0.81342   1.00
H2       0.14152    -0.19055   0.82490   1.00
H2       0.34810    0.05750    0.65508   1.00
H2       0.36231    0.01234    0.63115   1.00
C2       0.25210    0.10395    0.75149   1.00
C3       0.24226    0.08403    0.71679   1.00
O2       0.24281    0.10326    0.68143   1.00
C3       0.25923    0.08174    0.78556   1.00
H1       0.26583    0.09615    0.81282   1.00
C3a      0.24078    0.04287    0.71663   1.00
H1       0.23540    0.02798    0.68933   1.00
C3b      0.25895    0.04078    0.78500   1.00
C4       0.24977    0.02100    0.75035   1.00
O_3      0.31996    -0.02167   0.73786   1.00
C5       0.20448    0.11280    0.66981   1.00
H2       0.18606    0.08609    0.66673   1.00
C5       0.20752    0.13334    0.63026   1.00
H2       0.19041    0.13274    0.69132   1.00
H2       0.21135    0.11077    0.60721   1.00
H2       0.23481    0.15101    0.63055   1.00
C5       0.17191    0.15931    0.62119   1.00
H2       0.14471    0.14189    0.62407   1.00
H2       0.17364    0.17109    0.59096   1.00
H2       0.17054    0.18506    0.64119   1.00
C5       0.36421    0.00980    0.69517   1.00
H2       0.38791    -0.01218   0.69852   1.00
H2       0.36684    0.03045    0.72015   1.00
C5       0.36830    0.03197    0.65631   1.00
H2       0.39851    0.04334    0.65320   1.00
C5       0.29850    0.13261    0.36773   1.00
H2       0.26995    0.13149    0.35245   1.00
H2       0.29813    0.10816    0.38901   1.00
C5       0.33185    0.12695    0.33781   1.00
H2       0.33610    0.09545    0.33110   1.00
H2       0.35956    0.13911    0.34960   1.00
O_3      0.31905    0.26545    0.52000   1.00
C4       0.24956    0.25004    0.47900   1.00
C3c      0.25656    0.21582    0.45757   1.00
H1       0.26199    0.18871    0.47275   1.00
C3d      0.24199    0.28494    0.45865   1.00
C3       0.25723    0.21605    0.41646   1.00
O2       0.25951    0.18071    0.39752   1.00
C3       0.24337    0.28543    0.41773   1.00
H1       0.23876    0.31316    0.40343   1.00
C2       0.25083    0.25118    0.39561   1.00
C5       0.32820    0.30560    0.52121   1.00
H2       0.33247    0.31633    0.55162   1.00
H2       0.30472    0.32340    0.50734   1.00
C5       0.36600    0.31144    0.49878   1.00
H2       0.36208    0.29971    0.46871   1.00
H2       0.38930    0.29383    0.51309   1.00
C5       0.37740    0.35470    0.49746   1.00
H2       0.38109    0.36666    0.52740   1.00
H2       0.35478    0.37210    0.48197   1.00
H2       0.40553    0.35829    0.48170   1.00
C5       0.19841    0.32511    0.48895   1.00
C5       0.29894    0.17174    0.38930   1.00
H2       0.18850    0.30170    0.50912   1.00
H2       0.17891    0.32538    0.46288   1.00
H2       0.31586    0.16917    0.41700   1.00
H2       0.31342    0.19461    0.37105   1.00
H2       0.32490    0.14152    0.30945   1.00
H2       0.15508    0.34810    0.55750   1.00
H2       0.13115    0.36231    0.51234   1.00
C2       0.25149    0.25210    0.60395   1.00
C3       0.21679    0.24226    0.58403   1.00
O2       0.18143    0.24281    0.60326   1.00
C3       0.28556    0.25923    0.58174   1.00
H1       0.31282    0.26583    0.59615   1.00
C3a      0.21663    0.24078    0.54287   1.00
H1       0.18933    0.23540    0.52798   1.00
C3b      0.28500    0.25895    0.54078   1.00
C4       0.25035    0.24977    0.52100   1.00
O_3      0.23786    0.31996    0.47833   1.00
C5       0.16981    0.20448    0.61280   1.00
H2       0.16673    0.18606    0.58609   1.00
C5       0.13026    0.20752    0.63334   1.00
H2       0.19132    0.19041    0.63274   1.00
H2       0.10721    0.21135    0.61077   1.00
H2       0.13055    0.23481    0.65101   1.00
C5       0.12119    0.17191    0.65931   1.00
H2       0.12407    0.14471    0.64189   1.00
H2       0.09096    0.17364    0.67109   1.00
H2       0.14119    0.17054    0.68506   1.00
C5       0.19517    0.36421    0.50980   1.00
H2       0.19852    0.38791    0.48782   1.00
H2       0.22015    0.36684    0.53045   1.00
C5       0.15631    0.36830    0.53197   1.00
H2       0.15320    0.39851    0.54334   1.00
C5       0.29850    0.86739    0.63227   1.00
H2       0.26995    0.86851    0.64755   1.00
H2       0.29813    0.89184    0.61099   1.00
C5       0.33185    0.87305    0.66219   1.00
H2       0.33610    0.90455    0.66890   1.00
H2       0.35956    0.86089    0.65040   1.00
O_3      0.31905    0.73455    0.48000   1.00
C4       0.24956    0.74996    0.52100   1.00
C3c      0.25656    0.78418    0.54243   1.00
H1       0.26199    0.81129    0.52725   1.00
C3d      0.24199    0.71506    0.54135   1.00
C3       0.25723    0.78395    0.58354   1.00
O2       0.25951    0.81929    0.60248   1.00
C3       0.24337    0.71457    0.58227   1.00
H1       0.23876    0.68684    0.59657   1.00
C2       0.25083    0.74882    0.60439   1.00
C5       0.32820    0.69440    0.47879   1.00
H2       0.33247    0.68367    0.44838   1.00
H2       0.30472    0.67660    0.49266   1.00
C5       0.36600    0.68856    0.50122   1.00
H2       0.36208    0.70029    0.53129   1.00
H2       0.38930    0.70617    0.48691   1.00
C5       0.37740    0.64530    0.50254   1.00
H2       0.38109    0.63334    0.47260   1.00
H2       0.35478    0.62790    0.51803   1.00
H2       0.40553    0.64171    0.51830   1.00
C5       0.19841    0.67489    0.51105   1.00
C5       0.29894    0.82826    0.61070   1.00
H2       0.18850    0.69830    0.49088   1.00
H2       0.17891    0.67462    0.53712   1.00
H2       0.31586    0.83083    0.58300   1.00
H2       0.31342    0.80539    0.62895   1.00
H2       0.32490    0.85848    0.69055   1.00
H2       0.15508    0.65190    0.44250   1.00
H2       0.13115    0.63769    0.48766   1.00
C2       0.25149    0.74790    0.39605   1.00
C3       0.21679    0.75774    0.41597   1.00
O2       0.18143    0.75719    0.39674   1.00
C3       0.28556    0.74077    0.41826   1.00
H1       0.31282    0.73417    0.40385   1.00
C3a      0.21663    0.75922    0.45713   1.00
H1       0.18933    0.76460    0.47202   1.00
C3b      0.28500    0.74105    0.45922   1.00
C4       0.25035    0.75023    0.47900   1.00
O_3      0.23786    0.68004    0.52167   1.00
C5       0.16981    0.79552    0.38720   1.00
H2       0.16673    0.81394    0.41391   1.00
C5       0.13026    0.79248    0.36666   1.00
H2       0.19132    0.80959    0.36726   1.00
H2       0.10721    0.78865    0.38923   1.00
H2       0.13055    0.76519    0.34899   1.00
C5       0.12119    0.82809    0.34069   1.00
H2       0.12407    0.85529    0.35811   1.00
H2       0.09096    0.82636    0.32891   1.00
H2       0.14119    0.82946    0.31494   1.00
C5       0.19517    0.63579    0.49020   1.00
H2       0.19852    0.61209    0.51218   1.00
H2       0.22015    0.63316    0.46955   1.00
C5       0.15631    0.63170    0.46803   1.00
H2       0.15320    0.60149    0.45666   1.00
C5       0.36739    1.13227    0.29850   1.00
H2       0.36851    1.14755    0.26995   1.00
H2       0.39184    1.11099    0.29813   1.00
C5       0.37305    1.16219    0.33185   1.00
H2       0.40455    1.16890    0.33610   1.00
H2       0.36089    1.15040    0.35956   1.00
O_3      0.23455    0.98000    0.31905   1.00
C4       0.24996    1.02100    0.24956   1.00
C3c      0.28418    1.04243    0.25656   1.00
H1       0.31129    1.02725    0.26199   1.00
C3d      0.21506    1.04135    0.24199   1.00
C3       0.28395    1.08354    0.25723   1.00
O2       0.31929    1.10248    0.25951   1.00
C3       0.21457    1.08227    0.24337   1.00
H1       0.18684    1.09657    0.23876   1.00
C2       0.24882    1.10439    0.25083   1.00
C5       0.19440    0.97879    0.32820   1.00
H2       0.18367    0.94838    0.33247   1.00
H2       0.17660    0.99266    0.30472   1.00
C5       0.18856    1.00122    0.36600   1.00
H2       0.20029    1.03129    0.36208   1.00
H2       0.20617    0.98691    0.38930   1.00
C5       0.14530    1.00254    0.37740   1.00
H2       0.13334    0.97260    0.38109   1.00
H2       0.12790    1.01803    0.35478   1.00
H2       0.14171    1.01830    0.40553   1.00
C5       0.17489    1.01105    0.19841   1.00
C5       0.32826    1.11070    0.29894   1.00
H2       0.19830    0.99088    0.18850   1.00
H2       0.17462    1.03712    0.17891   1.00
H2       0.33083    1.08300    0.31586   1.00
H2       0.30539    1.12895    0.31342   1.00
H2       0.35848    1.19055    0.32490   1.00
H2       0.15190    0.94250    0.15508   1.00
H2       0.13769    0.98766    0.13115   1.00
C2       0.24790    0.89605    0.25149   1.00
C3       0.25774    0.91597    0.21679   1.00
O2       0.25719    0.89674    0.18143   1.00
C3       0.24077    0.91826    0.28556   1.00
H1       0.23417    0.90385    0.31282   1.00
C3a      0.25922    0.95713    0.21663   1.00
H1       0.26460    0.97202    0.18933   1.00
C3b      0.24105    0.95922    0.28500   1.00
C4       0.25023    0.97900    0.25035   1.00
O_3      0.18004    1.02167    0.23786   1.00
C5       0.29552    0.88720    0.16981   1.00
H2       0.31394    0.91391    0.16673   1.00
C5       0.29248    0.86666    0.13026   1.00
H2       0.30959    0.86726    0.19132   1.00
H2       0.28865    0.88923    0.10721   1.00
H2       0.26519    0.84899    0.13055   1.00
C5       0.32809    0.84069    0.12119   1.00
H2       0.35529    0.85811    0.12407   1.00
H2       0.32636    0.82891    0.09096   1.00
H2       0.32946    0.81494    0.14119   1.00
C5       0.13579    0.99020    0.19517   1.00
H2       0.11209    1.01218    0.19852   1.00
H2       0.13316    0.96955    0.22015   1.00
C5       0.13170    0.96803    0.15631   1.00
H2       0.10149    0.95666    0.15320   1.00
C5       -0.13227   0.79850    0.13261   1.00
H2       -0.14755   0.76995    0.13149   1.00
H2       -0.11099   0.79813    0.10816   1.00
C5       -0.16219   0.83185    0.12695   1.00
H2       -0.16890   0.83610    0.09545   1.00
H2       -0.15040   0.85956    0.13911   1.00
O_3      0.02000    0.81905    0.26545   1.00
C4       -0.02100   0.74956    0.25004   1.00
C3c      -0.04243   0.75656    0.21582   1.00
H1       -0.02725   0.76199    0.18871   1.00
C3d      -0.04135   0.74199    0.28494   1.00
C3       -0.08354   0.75723    0.21605   1.00
O2       -0.10248   0.75951    0.18071   1.00
C3       -0.08227   0.74337    0.28543   1.00
H1       -0.09657   0.73876    0.31316   1.00
C2       -0.10439   0.75083    0.25118   1.00
C5       0.02121    0.82820    0.30560   1.00
H2       0.05162    0.83247    0.31633   1.00
H2       0.00734    0.80472    0.32340   1.00
C5       -0.00122   0.86600    0.31144   1.00
H2       -0.03129   0.86208    0.29971   1.00
H2       0.01309    0.88930    0.29383   1.00
C5       -0.00254   0.87740    0.35470   1.00
H2       0.02740    0.88109    0.36666   1.00
H2       -0.01803   0.85478    0.37210   1.00
H2       -0.01830   0.90553    0.35829   1.00
C5       -0.01105   0.69841    0.32511   1.00
C5       -0.11070   0.79894    0.17174   1.00
H2       0.00912    0.68850    0.30170   1.00
H2       -0.03712   0.67891    0.32538   1.00
H2       -0.08300   0.81586    0.16917   1.00
H2       -0.12895   0.81342    0.19461   1.00
H2       -0.19055   0.82490    0.14152   1.00
H2       0.05750    0.65508    0.34810   1.00
H2       0.01234    0.63115    0.36231   1.00
C2       0.10395    0.75149    0.25210   1.00
C3       0.08403    0.71679    0.24226   1.00
O2       0.10326    0.68143    0.24281   1.00
C3       0.08174    0.78556    0.25923   1.00
H1       0.09615    0.81282    0.26583   1.00
C3a      0.04287    0.71663    0.24078   1.00
H1       0.02798    0.68933    0.23540   1.00
C3b      0.04078    0.78500    0.25895   1.00
C4       0.02100    0.75035    0.24977   1.00
O_3      -0.02167   0.73786    0.31996   1.00
C5       0.11280    0.66981    0.20448   1.00
H2       0.08609    0.66673    0.18606   1.00
C5       0.13334    0.63026    0.20752   1.00
H2       0.13274    0.69132    0.19041   1.00
H2       0.11077    0.60721    0.21135   1.00
H2       0.15101    0.63055    0.23481   1.00
C5       0.15931    0.62119    0.17191   1.00
H2       0.14189    0.62407    0.14471   1.00
H2       0.17109    0.59096    0.17364   1.00
H2       0.18506    0.64119    0.17054   1.00
C5       0.00980    0.69517    0.36421   1.00
H2       -0.01218   0.69852    0.38791   1.00
H2       0.03045    0.72015    0.36684   1.00
C5       0.03197    0.65631    0.36830   1.00
H2       0.04334    0.65320    0.39851   1.00
C5       0.63227    0.79850    0.36739   1.00
H2       0.64755    0.76995    0.36851   1.00
H2       0.61099    0.79813    0.39184   1.00
C5       0.66219    0.83185    0.37305   1.00
H2       0.66890    0.83610    0.40455   1.00
H2       0.65040    0.85956    0.36089   1.00
O_3      0.48000    0.81905    0.23455   1.00
C4       0.52100    0.74956    0.24996   1.00
C3c      0.54243    0.75656    0.28418   1.00
H1       0.52725    0.76199    0.31129   1.00
C3d      0.54135    0.74199    0.21506   1.00
C3       0.58354    0.75723    0.28395   1.00
O2       0.60248    0.75951    0.31929   1.00
C3       0.58227    0.74337    0.21457   1.00
H1       0.59657    0.73876    0.18684   1.00
C2       0.60439    0.75083    0.24882   1.00
C5       0.47879    0.82820    0.19440   1.00
H2       0.44838    0.83247    0.18367   1.00
H2       0.49266    0.80472    0.17660   1.00
C5       0.50122    0.86600    0.18856   1.00
H2       0.53129    0.86208    0.20029   1.00
H2       0.48691    0.88930    0.20617   1.00
C5       0.50254    0.87740    0.14530   1.00
H2       0.47260    0.88109    0.13334   1.00
H2       0.51803    0.85478    0.12790   1.00
H2       0.51830    0.90553    0.14171   1.00
C5       0.51105    0.69841    0.17489   1.00
C5       0.61070    0.79894    0.32826   1.00
H2       0.49088    0.68850    0.19830   1.00
H2       0.53712    0.67891    0.17462   1.00
H2       0.58300    0.81586    0.33083   1.00
H2       0.62895    0.81342    0.30539   1.00
H2       0.69055    0.82490    0.35848   1.00
H2       0.44250    0.65508    0.15190   1.00
H2       0.48766    0.63115    0.13769   1.00
C2       0.39605    0.75149    0.24790   1.00
C3       0.41597    0.71679    0.25774   1.00
O2       0.39674    0.68143    0.25719   1.00
C3       0.41826    0.78556    0.24077   1.00
H1       0.40385    0.81282    0.23417   1.00
C3a      0.45713    0.71663    0.25922   1.00
H1       0.47202    0.68933    0.26460   1.00
C3b      0.45922    0.78500    0.24105   1.00
C4       0.47900    0.75035    0.25023   1.00
O_3      0.52167    0.73786    0.18004   1.00
C5       0.38720    0.66981    0.29552   1.00
H2       0.41391    0.66673    0.31394   1.00
C5       0.36666    0.63026    0.29248   1.00
H2       0.36726    0.69132    0.30959   1.00
H2       0.38923    0.60721    0.28865   1.00
H2       0.34899    0.63055    0.26519   1.00
C5       0.34069    0.62119    0.32809   1.00
H2       0.35811    0.62407    0.35529   1.00
H2       0.32891    0.59096    0.32636   1.00
H2       0.31494    0.64119    0.32946   1.00
C5       0.49020    0.69517    0.13579   1.00
H2       0.51218    0.69852    0.11209   1.00
H2       0.46955    0.72015    0.13316   1.00
C5       0.46803    0.65631    0.13170   1.00
H2       0.45666    0.65320    0.10149   1.00
C5       0.13261    0.36773    0.29850   1.00
H2       0.13149    0.35245    0.26995   1.00
H2       0.10816    0.38901    0.29813   1.00
C5       0.12695    0.33781    0.33185   1.00
H2       0.09545    0.33110    0.33610   1.00
H2       0.13911    0.34960    0.35956   1.00
O_3      0.26545    0.52000    0.31905   1.00
C4       0.25004    0.47900    0.24956   1.00
C3c      0.21582    0.45757    0.25656   1.00
H1       0.18871    0.47275    0.26199   1.00
C3d      0.28494    0.45865    0.24199   1.00
C3       0.21605    0.41646    0.25723   1.00
O2       0.18071    0.39752    0.25951   1.00
C3       0.28543    0.41773    0.24337   1.00
H1       0.31316    0.40343    0.23876   1.00
C2       0.25118    0.39561    0.25083   1.00
C5       0.30560    0.52121    0.32820   1.00
H2       0.31633    0.55162    0.33247   1.00
H2       0.32340    0.50734    0.30472   1.00
C5       0.31144    0.49878    0.36600   1.00
H2       0.29971    0.46871    0.36208   1.00
H2       0.29383    0.51309    0.38930   1.00
C5       0.35470    0.49746    0.37740   1.00
H2       0.36666    0.52740    0.38109   1.00
H2       0.37210    0.48197    0.35478   1.00
H2       0.35829    0.48170    0.40553   1.00
C5       0.32511    0.48895    0.19841   1.00
C5       0.17174    0.38930    0.29894   1.00
H2       0.30170    0.50912    0.18850   1.00
H2       0.32538    0.46288    0.17891   1.00
H2       0.16917    0.41700    0.31586   1.00
H2       0.19461    0.37105    0.31342   1.00
H2       0.14152    0.30945    0.32490   1.00
H2       0.34810    0.55750    0.15508   1.00
H2       0.36231    0.51234    0.13115   1.00
C2       0.25210    0.60395    0.25149   1.00
C3       0.24226    0.58403    0.21679   1.00
O2       0.24281    0.60326    0.18143   1.00
C3       0.25923    0.58174    0.28556   1.00
H1       0.26583    0.59615    0.31282   1.00
C3a      0.24078    0.54287    0.21663   1.00
H1       0.23540    0.52798    0.18933   1.00
C3b      0.25895    0.54078    0.28500   1.00
C4       0.24977    0.52100    0.25035   1.00
O_3      0.31996    0.47833    0.23786   1.00
C5       0.20448    0.61280    0.16981   1.00
H2       0.18606    0.58609    0.16673   1.00
C5       0.20752    0.63334    0.13026   1.00
H2       0.19041    0.63274    0.19132   1.00
H2       0.21135    0.61077    0.10721   1.00
H2       0.23481    0.65101    0.13055   1.00
C5       0.17191    0.65931    0.12119   1.00
H2       0.14471    0.64189    0.12407   1.00
H2       0.17364    0.67109    0.09096   1.00
H2       0.17054    0.68506    0.14119   1.00
C5       0.36421    0.50980    0.19517   1.00
H2       0.38791    0.48782    0.19852   1.00
H2       0.36684    0.53045    0.22015   1.00
C5       0.36830    0.53197    0.15631   1.00
H2       0.39851    0.54334    0.15320   1.00
C5       0.29850    0.63261    -0.13227   1.00
H2       0.26995    0.63149    -0.14755   1.00
H2       0.29813    0.60816    -0.11099   1.00
C5       0.33185    0.62695    -0.16219   1.00
H2       0.33610    0.59545    -0.16890   1.00
H2       0.35956    0.63911    -0.15040   1.00
O_3      0.31905    0.76545    0.02000   1.00
C4       0.24956    0.75004    -0.02100   1.00
C3c      0.25656    0.71582    -0.04243   1.00
H1       0.26199    0.68871    -0.02725   1.00
C3d      0.24199    0.78494    -0.04135   1.00
C3       0.25723    0.71605    -0.08354   1.00
O2       0.25951    0.68071    -0.10248   1.00
C3       0.24337    0.78543    -0.08227   1.00
H1       0.23876    0.81316    -0.09657   1.00
C2       0.25083    0.75118    -0.10439   1.00
C5       0.32820    0.80560    0.02121   1.00
H2       0.33247    0.81633    0.05162   1.00
H2       0.30472    0.82340    0.00734   1.00
C5       0.36600    0.81144    -0.00122   1.00
H2       0.36208    0.79971    -0.03129   1.00
H2       0.38930    0.79383    0.01309   1.00
C5       0.37740    0.85470    -0.00254   1.00
H2       0.38109    0.86666    0.02740   1.00
H2       0.35478    0.87210    -0.01803   1.00
H2       0.40553    0.85829    -0.01830   1.00
C5       0.19841    0.82511    -0.01105   1.00
C5       0.29894    0.67174    -0.11070   1.00
H2       0.18850    0.80170    0.00912   1.00
H2       0.17891    0.82538    -0.03712   1.00
H2       0.31586    0.66917    -0.08300   1.00
H2       0.31342    0.69461    -0.12895   1.00
H2       0.32490    0.64152    -0.19055   1.00
H2       0.15508    0.84810    0.05750   1.00
H2       0.13115    0.86231    0.01234   1.00
C2       0.25149    0.75210    0.10395   1.00
C3       0.21679    0.74226    0.08403   1.00
O2       0.18143    0.74281    0.10326   1.00
C3       0.28556    0.75923    0.08174   1.00
H1       0.31282    0.76583    0.09615   1.00
C3a      0.21663    0.74078    0.04287   1.00
H1       0.18933    0.73540    0.02798   1.00
C3b      0.28500    0.75895    0.04078   1.00
C4       0.25035    0.74977    0.02100   1.00
O_3      0.23786    0.81996    -0.02167   1.00
C5       0.16981    0.70448    0.11280   1.00
H2       0.16673    0.68606    0.08609   1.00
C5       0.13026    0.70752    0.13334   1.00
H2       0.19132    0.69041    0.13274   1.00
H2       0.10721    0.71135    0.11077   1.00
H2       0.13055    0.73481    0.15101   1.00
C5       0.12119    0.67191    0.15931   1.00
H2       0.12407    0.64471    0.14189   1.00
H2       0.09096    0.67364    0.17109   1.00
H2       0.14119    0.67054    0.18506   1.00
C5       0.19517    0.86421    0.00980   1.00
H2       0.19852    0.88791    -0.01218   1.00
H2       0.22015    0.86684    0.03045   1.00
C5       0.15631    0.86830    0.03197   1.00
H2       0.15320    0.89851    0.04334   1.00
C5       0.79850    0.36739    0.63227   1.00
H2       0.76995    0.36851    0.64755   1.00
H2       0.79813    0.39184    0.61099   1.00
C5       0.83185    0.37305    0.66219   1.00
H2       0.83610    0.40455    0.66890   1.00
H2       0.85956    0.36089    0.65040   1.00
O_3      0.81905    0.23455    0.48000   1.00
C4       0.74956    0.24996    0.52100   1.00
C3c      0.75656    0.28418    0.54243   1.00
H1       0.76199    0.31129    0.52725   1.00
C3d      0.74199    0.21506    0.54135   1.00
C3       0.75723    0.28395    0.58354   1.00
O2       0.75951    0.31929    0.60248   1.00
C3       0.74337    0.21457    0.58227   1.00
H1       0.73876    0.18684    0.59657   1.00
C2       0.75083    0.24882    0.60439   1.00
C5       0.82820    0.19440    0.47879   1.00
H2       0.83247    0.18367    0.44838   1.00
H2       0.80472    0.17660    0.49266   1.00
C5       0.86600    0.18856    0.50122   1.00
H2       0.86208    0.20029    0.53129   1.00
H2       0.88930    0.20617    0.48691   1.00
C5       0.87740    0.14530    0.50254   1.00
H2       0.88109    0.13334    0.47260   1.00
H2       0.85478    0.12790    0.51803   1.00
H2       0.90553    0.14171    0.51830   1.00
C5       0.69841    0.17489    0.51105   1.00
C5       0.79894    0.32826    0.61070   1.00
H2       0.68850    0.19830    0.49088   1.00
H2       0.67891    0.17462    0.53712   1.00
H2       0.81586    0.33083    0.58300   1.00
H2       0.81342    0.30539    0.62895   1.00
H2       0.82490    0.35848    0.69055   1.00
H2       0.65508    0.15190    0.44250   1.00
H2       0.63115    0.13769    0.48766   1.00
C2       0.75149    0.24790    0.39605   1.00
C3       0.71679    0.25774    0.41597   1.00
O2       0.68143    0.25719    0.39674   1.00
C3       0.78556    0.24077    0.41826   1.00
H1       0.81282    0.23417    0.40385   1.00
C3a      0.71663    0.25922    0.45713   1.00
H1       0.68933    0.26460    0.47202   1.00
C3b      0.78500    0.24105    0.45922   1.00
C4       0.75035    0.25023    0.47900   1.00
O_3      0.73786    0.18004    0.52167   1.00
C5       0.66981    0.29552    0.38720   1.00
H2       0.66673    0.31394    0.41391   1.00
C5       0.63026    0.29248    0.36666   1.00
H2       0.69132    0.30959    0.36726   1.00
H2       0.60721    0.28865    0.38923   1.00
H2       0.63055    0.26519    0.34899   1.00
C5       0.62119    0.32809    0.34069   1.00
H2       0.62407    0.35529    0.35811   1.00
H2       0.59096    0.32636    0.32891   1.00
H2       0.64119    0.32946    0.31494   1.00
C5       0.69517    0.13579    0.49020   1.00
H2       0.69852    0.11209    0.51218   1.00
H2       0.72015    0.13316    0.46955   1.00
C5       0.65631    0.13170    0.46803   1.00
H2       0.65320    0.10149    0.45666   1.00
C5       0.86739    0.63227    0.29850   1.00
H2       0.86851    0.64755    0.26995   1.00
H2       0.89184    0.61099    0.29813   1.00
C5       0.87305    0.66219    0.33185   1.00
H2       0.90455    0.66890    0.33610   1.00
H2       0.86089    0.65040    0.35956   1.00
O_3      0.73455    0.48000    0.31905   1.00
C4       0.74996    0.52100    0.24956   1.00
C3c      0.78418    0.54243    0.25656   1.00
H1       0.81129    0.52725    0.26199   1.00
C3d      0.71506    0.54135    0.24199   1.00
C3       0.78395    0.58354    0.25723   1.00
O2       0.81929    0.60248    0.25951   1.00
C3       0.71457    0.58227    0.24337   1.00
H1       0.68684    0.59657    0.23876   1.00
C2       0.74882    0.60439    0.25083   1.00
C5       0.69440    0.47879    0.32820   1.00
H2       0.68367    0.44838    0.33247   1.00
H2       0.67660    0.49266    0.30472   1.00
C5       0.68856    0.50122    0.36600   1.00
H2       0.70029    0.53129    0.36208   1.00
H2       0.70617    0.48691    0.38930   1.00
C5       0.64530    0.50254    0.37740   1.00
H2       0.63334    0.47260    0.38109   1.00
H2       0.62790    0.51803    0.35478   1.00
H2       0.64171    0.51830    0.40553   1.00
C5       0.67489    0.51105    0.19841   1.00
C5       0.82826    0.61070    0.29894   1.00
H2       0.69830    0.49088    0.18850   1.00
H2       0.67462    0.53712    0.17891   1.00
H2       0.83083    0.58300    0.31586   1.00
H2       0.80539    0.62895    0.31342   1.00
H2       0.85848    0.69055    0.32490   1.00
H2       0.65190    0.44250    0.15508   1.00
H2       0.63769    0.48766    0.13115   1.00
C2       0.74790    0.39605    0.25149   1.00
C3       0.75774    0.41597    0.21679   1.00
O2       0.75719    0.39674    0.18143   1.00
C3       0.74077    0.41826    0.28556   1.00
H1       0.73417    0.40385    0.31282   1.00
C3a      0.75922    0.45713    0.21663   1.00
H1       0.76460    0.47202    0.18933   1.00
C3b      0.74105    0.45922    0.28500   1.00
C4       0.75023    0.47900    0.25035   1.00
O_3      0.68004    0.52167    0.23786   1.00
C5       0.79552    0.38720    0.16981   1.00
H2       0.81394    0.41391    0.16673   1.00
C5       0.79248    0.36666    0.13026   1.00
H2       0.80959    0.36726    0.19132   1.00
H2       0.78865    0.38923    0.10721   1.00
H2       0.76519    0.34899    0.13055   1.00
C5       0.82809    0.34069    0.12119   1.00
H2       0.85529    0.35811    0.12407   1.00
H2       0.82636    0.32891    0.09096   1.00
H2       0.82946    0.31494    0.14119   1.00
C5       0.63579    0.49020    0.19517   1.00
H2       0.61209    0.51218    0.19852   1.00
H2       0.63316    0.46955    0.22015   1.00
C5       0.63170    0.46803    0.15631   1.00
H2       0.60149    0.45666    0.15320   1.00
C5       0.36773    0.29850    0.13261   1.00
H2       0.35245    0.26995    0.13149   1.00
H2       0.38901    0.29813    0.10816   1.00
C5       0.33781    0.33185    0.12695   1.00
H2       0.33110    0.33610    0.09545   1.00
H2       0.34960    0.35956    0.13911   1.00
O_3      0.52000    0.31905    0.26545   1.00
C4       0.47900    0.24956    0.25004   1.00
C3c      0.45757    0.25656    0.21582   1.00
H1       0.47275    0.26199    0.18871   1.00
C3d      0.45865    0.24199    0.28494   1.00
C3       0.41646    0.25723    0.21605   1.00
O2       0.39752    0.25951    0.18071   1.00
C3       0.41773    0.24337    0.28543   1.00
H1       0.40343    0.23876    0.31316   1.00
C2       0.39561    0.25083    0.25118   1.00
C5       0.52121    0.32820    0.30560   1.00
H2       0.55162    0.33247    0.31633   1.00
H2       0.50734    0.30472    0.32340   1.00
C5       0.49878    0.36600    0.31144   1.00
H2       0.46871    0.36208    0.29971   1.00
H2       0.51309    0.38930    0.29383   1.00
C5       0.49746    0.37740    0.35470   1.00
H2       0.52740    0.38109    0.36666   1.00
H2       0.48197    0.35478    0.37210   1.00
H2       0.48170    0.40553    0.35829   1.00
C5       0.48895    0.19841    0.32511   1.00
C5       0.38930    0.29894    0.17174   1.00
H2       0.50912    0.18850    0.30170   1.00
H2       0.46288    0.17891    0.32538   1.00
H2       0.41700    0.31586    0.16917   1.00
H2       0.37105    0.31342    0.19461   1.00
H2       0.30945    0.32490    0.14152   1.00
H2       0.55750    0.15508    0.34810   1.00
H2       0.51234    0.13115    0.36231   1.00
C2       0.60395    0.25149    0.25210   1.00
C3       0.58403    0.21679    0.24226   1.00
O2       0.60326    0.18143    0.24281   1.00
C3       0.58174    0.28556    0.25923   1.00
H1       0.59615    0.31282    0.26583   1.00
C3a      0.54287    0.21663    0.24078   1.00
H1       0.52798    0.18933    0.23540   1.00
C3b      0.54078    0.28500    0.25895   1.00
C4       0.52100    0.25035    0.24977   1.00
O_3      0.47833    0.23786    0.31996   1.00
C5       0.61280    0.16981    0.20448   1.00
H2       0.58609    0.16673    0.18606   1.00
C5       0.63334    0.13026    0.20752   1.00
H2       0.63274    0.19132    0.19041   1.00
H2       0.61077    0.10721    0.21135   1.00
H2       0.65101    0.13055    0.23481   1.00
C5       0.65931    0.12119    0.17191   1.00
H2       0.64189    0.12407    0.14471   1.00
H2       0.67109    0.09096    0.17364   1.00
H2       0.68506    0.14119    0.17054   1.00
C5       0.50980    0.19517    0.36421   1.00
H2       0.48782    0.19852    0.38791   1.00
H2       0.53045    0.22015    0.36684   1.00
C5       0.53197    0.15631    0.36830   1.00
H2       0.54334    0.15320    0.39851   1.00
C5       1.13227    0.29850    0.36739   1.00
H2       1.14755    0.26995    0.36851   1.00
H2       1.11099    0.29813    0.39184   1.00
C5       1.16219    0.33185    0.37305   1.00
H2       1.16890    0.33610    0.40455   1.00
H2       1.15040    0.35956    0.36089   1.00
O_3      0.98000    0.31905    0.23455   1.00
C4       1.02100    0.24956    0.24996   1.00
C3c      1.04243    0.25656    0.28418   1.00
H1       1.02725    0.26199    0.31129   1.00
C3d      1.04135    0.24199    0.21506   1.00
C3       1.08354    0.25723    0.28395   1.00
O2       1.10248    0.25951    0.31929   1.00
C3       1.08227    0.24337    0.21457   1.00
H1       1.09657    0.23876    0.18684   1.00
C2       1.10439    0.25083    0.24882   1.00
C5       0.97879    0.32820    0.19440   1.00
H2       0.94838    0.33247    0.18367   1.00
H2       0.99266    0.30472    0.17660   1.00
C5       1.00122    0.36600    0.18856   1.00
H2       1.03129    0.36208    0.20029   1.00
H2       0.98691    0.38930    0.20617   1.00
C5       1.00254    0.37740    0.14530   1.00
H2       0.97260    0.38109    0.13334   1.00
H2       1.01803    0.35478    0.12790   1.00
H2       1.01830    0.40553    0.14171   1.00
C5       1.01105    0.19841    0.17489   1.00
C5       1.11070    0.29894    0.32826   1.00
H2       0.99088    0.18850    0.19830   1.00
H2       1.03712    0.17891    0.17462   1.00
H2       1.08300    0.31586    0.33083   1.00
H2       1.12895    0.31342    0.30539   1.00
H2       1.19055    0.32490    0.35848   1.00
H2       0.94250    0.15508    0.15190   1.00
H2       0.98766    0.13115    0.13769   1.00
C2       0.89605    0.25149    0.24790   1.00
C3       0.91597    0.21679    0.25774   1.00
O2       0.89674    0.18143    0.25719   1.00
C3       0.91826    0.28556    0.24077   1.00
H1       0.90385    0.31282    0.23417   1.00
C3a      0.95713    0.21663    0.25922   1.00
H1       0.97202    0.18933    0.26460   1.00
C3b      0.95922    0.28500    0.24105   1.00
C4       0.97900    0.25035    0.25023   1.00
O_3      1.02167    0.23786    0.18004   1.00
C5       0.88720    0.16981    0.29552   1.00
H2       0.91391    0.16673    0.31394   1.00
C5       0.86666    0.13026    0.29248   1.00
H2       0.86726    0.19132    0.30959   1.00
H2       0.88923    0.10721    0.28865   1.00
H2       0.84899    0.13055    0.26519   1.00
C5       0.84069    0.12119    0.32809   1.00
H2       0.85811    0.12407    0.35529   1.00
H2       0.82891    0.09096    0.32636   1.00
H2       0.81494    0.14119    0.32946   1.00
C5       0.99020    0.19517    0.13579   1.00
H2       1.01218    0.19852    0.11209   1.00
H2       0.96955    0.22015    0.13316   1.00
C5       0.96803    0.15631    0.13170   1.00
H2       0.95666    0.15320    0.10149   1.00
C5       0.63261    -0.13227   0.29850   1.00
H2       0.63149    -0.14755   0.26995   1.00
H2       0.60816    -0.11099   0.29813   1.00
C5       0.62695    -0.16219   0.33185   1.00
H2       0.59545    -0.16890   0.33610   1.00
H2       0.63911    -0.15040   0.35956   1.00
O_3      0.76545    0.02000    0.31905   1.00
C4       0.75004    -0.02100   0.24956   1.00
C3c      0.71582    -0.04243   0.25656   1.00
H1       0.68871    -0.02725   0.26199   1.00
C3d      0.78494    -0.04135   0.24199   1.00
C3       0.71605    -0.08354   0.25723   1.00
O2       0.68071    -0.10248   0.25951   1.00
C3       0.78543    -0.08227   0.24337   1.00
H1       0.81316    -0.09657   0.23876   1.00
C2       0.75118    -0.10439   0.25083   1.00
C5       0.80560    0.02121    0.32820   1.00
H2       0.81633    0.05162    0.33247   1.00
H2       0.82340    0.00734    0.30472   1.00
C5       0.81144    -0.00122   0.36600   1.00
H2       0.79971    -0.03129   0.36208   1.00
H2       0.79383    0.01309    0.38930   1.00
C5       0.85470    -0.00254   0.37740   1.00
H2       0.86666    0.02740    0.38109   1.00
H2       0.87210    -0.01803   0.35478   1.00
H2       0.85829    -0.01830   0.40553   1.00
C5       0.82511    -0.01105   0.19841   1.00
C5       0.67174    -0.11070   0.29894   1.00
H2       0.80170    0.00912    0.18850   1.00
H2       0.82538    -0.03712   0.17891   1.00
H2       0.66917    -0.08300   0.31586   1.00
H2       0.69461    -0.12895   0.31342   1.00
H2       0.64152    -0.19055   0.32490   1.00
H2       0.84810    0.05750    0.15508   1.00
H2       0.86231    0.01234    0.13115   1.00
C2       0.75210    0.10395    0.25149   1.00
C3       0.74226    0.08403    0.21679   1.00
O2       0.74281    0.10326    0.18143   1.00
C3       0.75923    0.08174    0.28556   1.00
H1       0.76583    0.09615    0.31282   1.00
C3a      0.74078    0.04287    0.21663   1.00
H1       0.73540    0.02798    0.18933   1.00
C3b      0.75895    0.04078    0.28500   1.00
C4       0.74977    0.02100    0.25035   1.00
O_3      0.81996    -0.02167   0.23786   1.00
C5       0.70448    0.11280    0.16981   1.00
H2       0.68606    0.08609    0.16673   1.00
C5       0.70752    0.13334    0.13026   1.00
H2       0.69041    0.13274    0.19132   1.00
H2       0.71135    0.11077    0.10721   1.00
H2       0.73481    0.15101    0.13055   1.00
C5       0.67191    0.15931    0.12119   1.00
H2       0.64471    0.14189    0.12407   1.00
H2       0.67364    0.17109    0.09096   1.00
H2       0.67054    0.18506    0.14119   1.00
C5       0.86421    0.00980    0.19517   1.00
H2       0.88791    -0.01218   0.19852   1.00
H2       0.86684    0.03045    0.22015   1.00
C5       0.86830    0.03197    0.15631   1.00
H2       0.89851    0.04334    0.15320   1.00
C5       0.79850    0.13261    -0.13227   1.00
H2       0.76995    0.13149    -0.14755   1.00
H2       0.79813    0.10816    -0.11099   1.00
C5       0.83185    0.12695    -0.16219   1.00
H2       0.83610    0.09545    -0.16890   1.00
H2       0.85956    0.13911    -0.15040   1.00
O_3      0.81905    0.26545    0.02000   1.00
C4       0.74956    0.25004    -0.02100   1.00
C3c      0.75656    0.21582    -0.04243   1.00
H1       0.76199    0.18871    -0.02725   1.00
C3d      0.74199    0.28494    -0.04135   1.00
C3       0.75723    0.21605    -0.08354   1.00
O2       0.75951    0.18071    -0.10248   1.00
C3       0.74337    0.28543    -0.08227   1.00
H1       0.73876    0.31316    -0.09657   1.00
C2       0.75083    0.25118    -0.10439   1.00
C5       0.82820    0.30560    0.02121   1.00
H2       0.83247    0.31633    0.05162   1.00
H2       0.80472    0.32340    0.00734   1.00
C5       0.86600    0.31144    -0.00122   1.00
H2       0.86208    0.29971    -0.03129   1.00
H2       0.88930    0.29383    0.01309   1.00
C5       0.87740    0.35470    -0.00254   1.00
H2       0.88109    0.36666    0.02740   1.00
H2       0.85478    0.37210    -0.01803   1.00
H2       0.90553    0.35829    -0.01830   1.00
C5       0.69841    0.32511    -0.01105   1.00
C5       0.79894    0.17174    -0.11070   1.00
H2       0.68850    0.30170    0.00912   1.00
H2       0.67891    0.32538    -0.03712   1.00
H2       0.81586    0.16917    -0.08300   1.00
H2       0.81342    0.19461    -0.12895   1.00
H2       0.82490    0.14152    -0.19055   1.00
H2       0.65508    0.34810    0.05750   1.00
H2       0.63115    0.36231    0.01234   1.00
C2       0.75149    0.25210    0.10395   1.00
C3       0.71679    0.24226    0.08403   1.00
O2       0.68143    0.24281    0.10326   1.00
C3       0.78556    0.25923    0.08174   1.00
H1       0.81282    0.26583    0.09615   1.00
C3a      0.71663    0.24078    0.04287   1.00
H1       0.68933    0.23540    0.02798   1.00
C3b      0.78500    0.25895    0.04078   1.00
C4       0.75035    0.24977    0.02100   1.00
O_3      0.73786    0.31996    -0.02167   1.00
C5       0.66981    0.20448    0.11280   1.00
H2       0.66673    0.18606    0.08609   1.00
C5       0.63026    0.20752    0.13334   1.00
H2       0.69132    0.19041    0.13274   1.00
H2       0.60721    0.21135    0.11077   1.00
H2       0.63055    0.23481    0.15101   1.00
C5       0.62119    0.17191    0.15931   1.00
H2       0.62407    0.14471    0.14189   1.00
H2       0.59096    0.17364    0.17109   1.00
H2       0.64119    0.17054    0.18506   1.00
C5       0.69517    0.36421    0.00980   1.00
H2       0.69852    0.38791    -0.01218   1.00
H2       0.72015    0.36684    0.03045   1.00
C5       0.65631    0.36830    0.03197   1.00
H2       0.65320    0.39851    0.04334   1.00
C5       1.04850    1.11739    1.38227   1.00
H2       1.01995    1.11851    1.39755   1.00
H2       1.04813    1.14184    1.36099   1.00
C5       1.08185    1.12305    1.41219   1.00
H2       1.08610    1.15455    1.41890   1.00
H2       1.10956    1.11089    1.40040   1.00
O_3      1.06905    0.98455    1.23000   1.00
C4       0.99956    0.99996    1.27100   1.00
C3c      1.00656    1.03418    1.29243   1.00
H1       1.01199    1.06129    1.27725   1.00
C3d      0.99199    0.96506    1.29135   1.00
C3       1.00723    1.03395    1.33354   1.00
O2       1.00951    1.06929    1.35248   1.00
C3       0.99337    0.96457    1.33227   1.00
H1       0.98876    0.93684    1.34657   1.00
C2       1.00083    0.99882    1.35439   1.00
C5       1.07820    0.94440    1.22879   1.00
H2       1.08247    0.93367    1.19838   1.00
H2       1.05472    0.92660    1.24266   1.00
C5       1.11600    0.93856    1.25122   1.00
H2       1.11208    0.95029    1.28129   1.00
H2       1.13930    0.95617    1.23691   1.00
C5       1.12740    0.89530    1.25254   1.00
H2       1.13109    0.88334    1.22260   1.00
H2       1.10478    0.87790    1.26803   1.00
H2       1.15553    0.89171    1.26830   1.00
C5       0.94841    0.92489    1.26105   1.00
C5       1.04894    1.07826    1.36070   1.00
H2       0.93850    0.94830    1.24088   1.00
H2       0.92891    0.92462    1.28712   1.00
H2       1.06586    1.08083    1.33300   1.00
H2       1.06342    1.05539    1.37895   1.00
H2       1.07490    1.10848    1.44055   1.00
H2       0.90508    0.90190    1.19250   1.00
H2       0.88115    0.88769    1.23766   1.00
C2       1.00149    0.99790    1.14605   1.00
C3       0.96679    1.00774    1.16597   1.00
O2       0.93143    1.00719    1.14674   1.00
C3       1.03556    0.99077    1.16826   1.00
H1       1.06282    0.98417    1.15385   1.00
C3a      0.96663    1.00922    1.20713   1.00
H1       0.93933    1.01460    1.22202   1.00
C3b      1.03500    0.99105    1.20922   1.00
C4       1.00035    1.00023    1.22900   1.00
O_3      0.98786    0.93004    1.27167   1.00
C5       0.91981    1.04552    1.13720   1.00
H2       0.91673    1.06394    1.16391   1.00
C5       0.88026    1.04248    1.11666   1.00
H2       0.94132    1.05959    1.11726   1.00
H2       0.85721    1.03865    1.13923   1.00
H2       0.88055    1.01519    1.09899   1.00
C5       0.87119    1.07809    1.09069   1.00
H2       0.87407    1.10529    1.10811   1.00
H2       0.84096    1.07636    1.07891   1.00
H2       0.89119    1.07946    1.06494   1.00
C5       0.94517    0.88579    1.24020   1.00
H2       0.94852    0.86209    1.26218   1.00
H2       0.97015    0.88316    1.21955   1.00
C5       0.90631    0.88170    1.21803   1.00
H2       0.90320    0.85149    1.20666   1.00
C5       1.11739    1.38227    1.04850   1.00
H2       1.11851    1.39755    1.01995   1.00
H2       1.14184    1.36099    1.04813   1.00
C5       1.12305    1.41219    1.08185   1.00
H2       1.15455    1.41890    1.08610   1.00
H2       1.11089    1.40040    1.10956   1.00
O_3      0.98455    1.23000    1.06905   1.00
C4       0.99996    1.27100    0.99956   1.00
C3c      1.03418    1.29243    1.00656   1.00
H1       1.06129    1.27725    1.01199   1.00
C3d      0.96506    1.29135    0.99199   1.00
C3       1.03395    1.33354    1.00723   1.00
O2       1.06929    1.35248    1.00951   1.00
C3       0.96457    1.33227    0.99337   1.00
H1       0.93684    1.34657    0.98876   1.00
C2       0.99882    1.35439    1.00083   1.00
C5       0.94440    1.22879    1.07820   1.00
H2       0.93367    1.19838    1.08247   1.00
H2       0.92660    1.24266    1.05472   1.00
C5       0.93856    1.25122    1.11600   1.00
H2       0.95029    1.28129    1.11208   1.00
H2       0.95617    1.23691    1.13930   1.00
C5       0.89530    1.25254    1.12740   1.00
H2       0.88334    1.22260    1.13109   1.00
H2       0.87790    1.26803    1.10478   1.00
H2       0.89171    1.26830    1.15553   1.00
C5       0.92489    1.26105    0.94841   1.00
C5       1.07826    1.36070    1.04894   1.00
H2       0.94830    1.24088    0.93850   1.00
H2       0.92462    1.28712    0.92891   1.00
H2       1.08083    1.33300    1.06586   1.00
H2       1.05539    1.37895    1.06342   1.00
H2       1.10848    1.44055    1.07490   1.00
H2       0.90190    1.19250    0.90508   1.00
H2       0.88769    1.23766    0.88115   1.00
C2       0.99790    1.14605    1.00149   1.00
C3       1.00774    1.16597    0.96679   1.00
O2       1.00719    1.14674    0.93143   1.00
C3       0.99077    1.16826    1.03556   1.00
H1       0.98417    1.15385    1.06282   1.00
C3a      1.00922    1.20713    0.96663   1.00
H1       1.01460    1.22202    0.93933   1.00
C3b      0.99105    1.20922    1.03500   1.00
C4       1.00023    1.22900    1.00035   1.00
O_3      0.93004    1.27167    0.98786   1.00
C5       1.04552    1.13720    0.91981   1.00
H2       1.06394    1.16391    0.91673   1.00
C5       1.04248    1.11666    0.88026   1.00
H2       1.05959    1.11726    0.94132   1.00
H2       1.03865    1.13923    0.85721   1.00
H2       1.01519    1.09899    0.88055   1.00
C5       1.07809    1.09069    0.87119   1.00
H2       1.10529    1.10811    0.87407   1.00
H2       1.07636    1.07891    0.84096   1.00
H2       1.07946    1.06494    0.89119   1.00
C5       0.88579    1.24020    0.94517   1.00
H2       0.86209    1.26218    0.94852   1.00
H2       0.88316    1.21955    0.97015   1.00
C5       0.88170    1.21803    0.90631   1.00
H2       0.85149    1.20666    0.90320   1.00
C5       0.61773    1.04850    0.88261   1.00
H2       0.60245    1.01995    0.88149   1.00
H2       0.63901    1.04813    0.85816   1.00
C5       0.58781    1.08185    0.87695   1.00
H2       0.58110    1.08610    0.84545   1.00
H2       0.59960    1.10956    0.88911   1.00
O_3      0.77000    1.06905    1.01545   1.00
C4       0.72900    0.99956    1.00004   1.00
C3c      0.70757    1.00656    0.96582   1.00
H1       0.72275    1.01199    0.93871   1.00
C3d      0.70865    0.99199    1.03494   1.00
C3       0.66646    1.00723    0.96605   1.00
O2       0.64752    1.00951    0.93071   1.00
C3       0.66773    0.99337    1.03543   1.00
H1       0.65343    0.98876    1.06316   1.00
C2       0.64561    1.00083    1.00118   1.00
C5       0.77121    1.07820    1.05560   1.00
H2       0.80162    1.08247    1.06633   1.00
H2       0.75734    1.05472    1.07340   1.00
C5       0.74878    1.11600    1.06144   1.00
H2       0.71871    1.11208    1.04971   1.00
H2       0.76309    1.13930    1.04383   1.00
C5       0.74746    1.12740    1.10470   1.00
H2       0.77740    1.13109    1.11666   1.00
H2       0.73197    1.10478    1.12210   1.00
H2       0.73170    1.15553    1.10829   1.00
C5       0.73895    0.94841    1.07511   1.00
C5       0.63930    1.04894    0.92174   1.00
H2       0.75912    0.93850    1.05170   1.00
H2       0.71288    0.92891    1.07538   1.00
H2       0.66700    1.06586    0.91917   1.00
H2       0.62105    1.06342    0.94461   1.00
H2       0.55945    1.07490    0.89152   1.00
H2       0.80750    0.90508    1.09810   1.00
H2       0.76234    0.88115    1.11231   1.00
C2       0.85395    1.00149    1.00210   1.00
C3       0.83403    0.96679    0.99226   1.00
O2       0.85326    0.93143    0.99281   1.00
C3       0.83174    1.03556    1.00923   1.00
H1       0.84615    1.06282    1.01583   1.00
C3a      0.79287    0.96663    0.99078   1.00
H1       0.77798    0.93933    0.98540   1.00
C3b      0.79078    1.03500    1.00895   1.00
C4       0.77100    1.00035    0.99977   1.00
O_3      0.72833    0.98786    1.06996   1.00
C5       0.86280    0.91981    0.95448   1.00
H2       0.83609    0.91673    0.93606   1.00
C5       0.88334    0.88026    0.95752   1.00
H2       0.88274    0.94132    0.94041   1.00
H2       0.86077    0.85721    0.96135   1.00
H2       0.90101    0.88055    0.98481   1.00
C5       0.90931    0.87119    0.92191   1.00
H2       0.89189    0.87407    0.89471   1.00
H2       0.92109    0.84096    0.92364   1.00
H2       0.93506    0.89119    0.92054   1.00
C5       0.75980    0.94517    1.11421   1.00
H2       0.73782    0.94852    1.13791   1.00
H2       0.78045    0.97015    1.11684   1.00
C5       0.78197    0.90631    1.11830   1.00
H2       0.79334    0.90320    1.14851   1.00
C5       1.38227    1.04850    1.11739   1.00
H2       1.39755    1.01995    1.11851   1.00
H2       1.36099    1.04813    1.14184   1.00
C5       1.41219    1.08185    1.12305   1.00
H2       1.41890    1.08610    1.15455   1.00
H2       1.40040    1.10956    1.11089   1.00
O_3      1.23000    1.06905    0.98455   1.00
C4       1.27100    0.99956    0.99996   1.00
C3c      1.29243    1.00656    1.03418   1.00
H1       1.27725    1.01199    1.06129   1.00
C3d      1.29135    0.99199    0.96506   1.00
C3       1.33354    1.00723    1.03395   1.00
O2       1.35248    1.00951    1.06929   1.00
C3       1.33227    0.99337    0.96457   1.00
H1       1.34657    0.98876    0.93684   1.00
C2       1.35439    1.00083    0.99882   1.00
C5       1.22879    1.07820    0.94440   1.00
H2       1.19838    1.08247    0.93367   1.00
H2       1.24266    1.05472    0.92660   1.00
C5       1.25122    1.11600    0.93856   1.00
H2       1.28129    1.11208    0.95029   1.00
H2       1.23691    1.13930    0.95617   1.00
C5       1.25254    1.12740    0.89530   1.00
H2       1.22260    1.13109    0.88334   1.00
H2       1.26803    1.10478    0.87790   1.00
H2       1.26830    1.15553    0.89171   1.00
C5       1.26105    0.94841    0.92489   1.00
C5       1.36070    1.04894    1.07826   1.00
H2       1.24088    0.93850    0.94830   1.00
H2       1.28712    0.92891    0.92462   1.00
H2       1.33300    1.06586    1.08083   1.00
H2       1.37895    1.06342    1.05539   1.00
H2       1.44055    1.07490    1.10848   1.00
H2       1.19250    0.90508    0.90190   1.00
H2       1.23766    0.88115    0.88769   1.00
C2       1.14605    1.00149    0.99790   1.00
C3       1.16597    0.96679    1.00774   1.00
O2       1.14674    0.93143    1.00719   1.00
C3       1.16826    1.03556    0.99077   1.00
H1       1.15385    1.06282    0.98417   1.00
C3a      1.20713    0.96663    1.00922   1.00
H1       1.22202    0.93933    1.01460   1.00
C3b      1.20922    1.03500    0.99105   1.00
C4       1.22900    1.00035    1.00023   1.00
O_3      1.27167    0.98786    0.93004   1.00
C5       1.13720    0.91981    1.04552   1.00
H2       1.16391    0.91673    1.06394   1.00
C5       1.11666    0.88026    1.04248   1.00
H2       1.11726    0.94132    1.05959   1.00
H2       1.13923    0.85721    1.03865   1.00
H2       1.09899    0.88055    1.01519   1.00
C5       1.09069    0.87119    1.07809   1.00
H2       1.10811    0.87407    1.10529   1.00
H2       1.07891    0.84096    1.07636   1.00
H2       1.06494    0.89119    1.07946   1.00
C5       1.24020    0.94517    0.88579   1.00
H2       1.26218    0.94852    0.86209   1.00
H2       1.21955    0.97015    0.88316   1.00
C5       1.21803    0.90631    0.88170   1.00
H2       1.20666    0.90320    0.85149   1.00
C5       0.88261    0.61773    1.04850   1.00
H2       0.88149    0.60245    1.01995   1.00
H2       0.85816    0.63901    1.04813   1.00
C5       0.87695    0.58781    1.08185   1.00
H2       0.84545    0.58110    1.08610   1.00
H2       0.88911    0.59960    1.10956   1.00
O_3      1.01545    0.77000    1.06905   1.00
C4       1.00004    0.72900    0.99956   1.00
C3c      0.96582    0.70757    1.00656   1.00
H1       0.93871    0.72275    1.01199   1.00
C3d      1.03494    0.70865    0.99199   1.00
C3       0.96605    0.66646    1.00723   1.00
O2       0.93071    0.64752    1.00951   1.00
C3       1.03543    0.66773    0.99337   1.00
H1       1.06316    0.65343    0.98876   1.00
C2       1.00118    0.64561    1.00083   1.00
C5       1.05560    0.77121    1.07820   1.00
H2       1.06633    0.80162    1.08247   1.00
H2       1.07340    0.75734    1.05472   1.00
C5       1.06144    0.74878    1.11600   1.00
H2       1.04971    0.71871    1.11208   1.00
H2       1.04383    0.76309    1.13930   1.00
C5       1.10470    0.74746    1.12740   1.00
H2       1.11666    0.77740    1.13109   1.00
H2       1.12210    0.73197    1.10478   1.00
H2       1.10829    0.73170    1.15553   1.00
C5       1.07511    0.73895    0.94841   1.00
C5       0.92174    0.63930    1.04894   1.00
H2       1.05170    0.75912    0.93850   1.00
H2       1.07538    0.71288    0.92891   1.00
H2       0.91917    0.66700    1.06586   1.00
H2       0.94461    0.62105    1.06342   1.00
H2       0.89152    0.55945    1.07490   1.00
H2       1.09810    0.80750    0.90508   1.00
H2       1.11231    0.76234    0.88115   1.00
C2       1.00210    0.85395    1.00149   1.00
C3       0.99226    0.83403    0.96679   1.00
O2       0.99281    0.85326    0.93143   1.00
C3       1.00923    0.83174    1.03556   1.00
H1       1.01583    0.84615    1.06282   1.00
C3a      0.99078    0.79287    0.96663   1.00
H1       0.98540    0.77798    0.93933   1.00
C3b      1.00895    0.79078    1.03500   1.00
C4       0.99977    0.77100    1.00035   1.00
O_3      1.06996    0.72833    0.98786   1.00
C5       0.95448    0.86280    0.91981   1.00
H2       0.93606    0.83609    0.91673   1.00
C5       0.95752    0.88334    0.88026   1.00
H2       0.94041    0.88274    0.94132   1.00
H2       0.96135    0.86077    0.85721   1.00
H2       0.98481    0.90101    0.88055   1.00
C5       0.92191    0.90931    0.87119   1.00
H2       0.89471    0.89189    0.87407   1.00
H2       0.92364    0.92109    0.84096   1.00
H2       0.92054    0.93506    0.89119   1.00
C5       1.11421    0.75980    0.94517   1.00
H2       1.13791    0.73782    0.94852   1.00
H2       1.11684    0.78045    0.97015   1.00
C5       1.11830    0.78197    0.90631   1.00
H2       1.14851    0.79334    0.90320   1.00
C5       1.04850    0.88261    0.61773   1.00
H2       1.01995    0.88149    0.60245   1.00
H2       1.04813    0.85816    0.63901   1.00
C5       1.08185    0.87695    0.58781   1.00
H2       1.08610    0.84545    0.58110   1.00
H2       1.10956    0.88911    0.59960   1.00
O_3      1.06905    1.01545    0.77000   1.00
C4       0.99956    1.00004    0.72900   1.00
C3c      1.00656    0.96582    0.70757   1.00
H1       1.01199    0.93871    0.72275   1.00
C3d      0.99199    1.03494    0.70865   1.00
C3       1.00723    0.96605    0.66646   1.00
O2       1.00951    0.93071    0.64752   1.00
C3       0.99337    1.03543    0.66773   1.00
H1       0.98876    1.06316    0.65343   1.00
C2       1.00083    1.00118    0.64561   1.00
C5       1.07820    1.05560    0.77121   1.00
H2       1.08247    1.06633    0.80162   1.00
H2       1.05472    1.07340    0.75734   1.00
C5       1.11600    1.06144    0.74878   1.00
H2       1.11208    1.04971    0.71871   1.00
H2       1.13930    1.04383    0.76309   1.00
C5       1.12740    1.10470    0.74746   1.00
H2       1.13109    1.11666    0.77740   1.00
H2       1.10478    1.12210    0.73197   1.00
H2       1.15553    1.10829    0.73170   1.00
C5       0.94841    1.07511    0.73895   1.00
C5       1.04894    0.92174    0.63930   1.00
H2       0.93850    1.05170    0.75912   1.00
H2       0.92891    1.07538    0.71288   1.00
H2       1.06586    0.91917    0.66700   1.00
H2       1.06342    0.94461    0.62105   1.00
H2       1.07490    0.89152    0.55945   1.00
H2       0.90508    1.09810    0.80750   1.00
H2       0.88115    1.11231    0.76234   1.00
C2       1.00149    1.00210    0.85395   1.00
C3       0.96679    0.99226    0.83403   1.00
O2       0.93143    0.99281    0.85326   1.00
C3       1.03556    1.00923    0.83174   1.00
H1       1.06282    1.01583    0.84615   1.00
C3a      0.96663    0.99078    0.79287   1.00
H1       0.93933    0.98540    0.77798   1.00
C3b      1.03500    1.00895    0.79078   1.00
C4       1.00035    0.99977    0.77100   1.00
O_3      0.98786    1.06996    0.72833   1.00
C5       0.91981    0.95448    0.86280   1.00
H2       0.91673    0.93606    0.83609   1.00
C5       0.88026    0.95752    0.88334   1.00
H2       0.94132    0.94041    0.88274   1.00
H2       0.85721    0.96135    0.86077   1.00
H2       0.88055    0.98481    0.90101   1.00
C5       0.87119    0.92191    0.90931   1.00
H2       0.87407    0.89471    0.89189   1.00
H2       0.84096    0.92364    0.92109   1.00
H2       0.89119    0.92054    0.93506   1.00
C5       0.94517    1.11421    0.75980   1.00
H2       0.94852    1.13791    0.73782   1.00
H2       0.97015    1.11684    0.78045   1.00
C5       0.90631    1.11830    0.78197   1.00
H2       0.90320    1.14851    0.79334   1.00
C5       0.54850    0.61739    1.38227   1.00
H2       0.51995    0.61851    1.39755   1.00
H2       0.54813    0.64184    1.36099   1.00
C5       0.58185    0.62305    1.41219   1.00
H2       0.58610    0.65455    1.41890   1.00
H2       0.60956    0.61089    1.40040   1.00
O_3      0.56905    0.48455    1.23000   1.00
C4       0.49956    0.49996    1.27100   1.00
C3c      0.50656    0.53418    1.29243   1.00
H1       0.51199    0.56129    1.27725   1.00
C3d      0.49199    0.46506    1.29135   1.00
C3       0.50723    0.53395    1.33354   1.00
O2       0.50951    0.56929    1.35248   1.00
C3       0.49337    0.46457    1.33227   1.00
H1       0.48876    0.43684    1.34657   1.00
C2       0.50083    0.49882    1.35439   1.00
C5       0.57820    0.44440    1.22879   1.00
H2       0.58247    0.43367    1.19838   1.00
H2       0.55472    0.42660    1.24266   1.00
C5       0.61600    0.43856    1.25122   1.00
H2       0.61208    0.45029    1.28129   1.00
H2       0.63930    0.45617    1.23691   1.00
C5       0.62740    0.39530    1.25254   1.00
H2       0.63109    0.38334    1.22260   1.00
H2       0.60478    0.37790    1.26803   1.00
H2       0.65553    0.39171    1.26830   1.00
C5       0.44841    0.42489    1.26105   1.00
C5       0.54894    0.57826    1.36070   1.00
H2       0.43850    0.44830    1.24088   1.00
H2       0.42891    0.42462    1.28712   1.00
H2       0.56586    0.58083    1.33300   1.00
H2       0.56342    0.55539    1.37895   1.00
H2       0.57490    0.60848    1.44055   1.00
H2       0.40508    0.40190    1.19250   1.00
H2       0.38115    0.38769    1.23766   1.00
C2       0.50149    0.49790    1.14605   1.00
C3       0.46679    0.50774    1.16597   1.00
O2       0.43143    0.50719    1.14674   1.00
C3       0.53556    0.49077    1.16826   1.00
H1       0.56282    0.48417    1.15385   1.00
C3a      0.46663    0.50922    1.20713   1.00
H1       0.43933    0.51460    1.22202   1.00
C3b      0.53500    0.49105    1.20922   1.00
C4       0.50035    0.50023    1.22900   1.00
O_3      0.48786    0.43004    1.27167   1.00
C5       0.41981    0.54552    1.13720   1.00
H2       0.41673    0.56394    1.16391   1.00
C5       0.38026    0.54248    1.11666   1.00
H2       0.44132    0.55959    1.11726   1.00
H2       0.35721    0.53865    1.13923   1.00
H2       0.38055    0.51519    1.09899   1.00
C5       0.37119    0.57809    1.09069   1.00
H2       0.37407    0.60529    1.10811   1.00
H2       0.34096    0.57636    1.07891   1.00
H2       0.39119    0.57946    1.06494   1.00
C5       0.44517    0.38579    1.24020   1.00
H2       0.44852    0.36209    1.26218   1.00
H2       0.47015    0.38316    1.21955   1.00
C5       0.40631    0.38170    1.21803   1.00
H2       0.40320    0.35149    1.20666   1.00
C5       0.61739    0.88227    1.04850   1.00
H2       0.61851    0.89755    1.01995   1.00
H2       0.64184    0.86099    1.04813   1.00
C5       0.62305    0.91219    1.08185   1.00
H2       0.65455    0.91890    1.08610   1.00
H2       0.61089    0.90040    1.10956   1.00
O_3      0.48455    0.73000    1.06905   1.00
C4       0.49996    0.77100    0.99956   1.00
C3c      0.53418    0.79243    1.00656   1.00
H1       0.56129    0.77725    1.01199   1.00
C3d      0.46506    0.79135    0.99199   1.00
C3       0.53395    0.83354    1.00723   1.00
O2       0.56929    0.85248    1.00951   1.00
C3       0.46457    0.83227    0.99337   1.00
H1       0.43684    0.84657    0.98876   1.00
C2       0.49882    0.85439    1.00083   1.00
C5       0.44440    0.72879    1.07820   1.00
H2       0.43367    0.69838    1.08247   1.00
H2       0.42660    0.74266    1.05472   1.00
C5       0.43856    0.75122    1.11600   1.00
H2       0.45029    0.78129    1.11208   1.00
H2       0.45617    0.73691    1.13930   1.00
C5       0.39530    0.75254    1.12740   1.00
H2       0.38334    0.72260    1.13109   1.00
H2       0.37790    0.76803    1.10478   1.00
H2       0.39171    0.76830    1.15553   1.00
C5       0.42489    0.76105    0.94841   1.00
C5       0.57826    0.86070    1.04894   1.00
H2       0.44830    0.74088    0.93850   1.00
H2       0.42462    0.78712    0.92891   1.00
H2       0.58083    0.83300    1.06586   1.00
H2       0.55539    0.87895    1.06342   1.00
H2       0.60848    0.94055    1.07490   1.00
H2       0.40190    0.69250    0.90508   1.00
H2       0.38769    0.73766    0.88115   1.00
C2       0.49790    0.64605    1.00149   1.00
C3       0.50774    0.66597    0.96679   1.00
O2       0.50719    0.64674    0.93143   1.00
C3       0.49077    0.66826    1.03556   1.00
H1       0.48417    0.65385    1.06282   1.00
C3a      0.50922    0.70713    0.96663   1.00
H1       0.51460    0.72202    0.93933   1.00
C3b      0.49105    0.70922    1.03500   1.00
C4       0.50023    0.72900    1.00035   1.00
O_3      0.43004    0.77167    0.98786   1.00
C5       0.54552    0.63720    0.91981   1.00
H2       0.56394    0.66391    0.91673   1.00
C5       0.54248    0.61666    0.88026   1.00
H2       0.55959    0.61726    0.94132   1.00
H2       0.53865    0.63923    0.85721   1.00
H2       0.51519    0.59899    0.88055   1.00
C5       0.57809    0.59069    0.87119   1.00
H2       0.60529    0.60811    0.87407   1.00
H2       0.57636    0.57891    0.84096   1.00
H2       0.57946    0.56494    0.89119   1.00
C5       0.38579    0.74020    0.94517   1.00
H2       0.36209    0.76218    0.94852   1.00
H2       0.38316    0.71955    0.97015   1.00
C5       0.38170    0.71803    0.90631   1.00
H2       0.35149    0.70666    0.90320   1.00
C5       0.11773    0.54850    0.88261   1.00
H2       0.10245    0.51995    0.88149   1.00
H2       0.13901    0.54813    0.85816   1.00
C5       0.08781    0.58185    0.87695   1.00
H2       0.08110    0.58610    0.84545   1.00
H2       0.09960    0.60956    0.88911   1.00
O_3      0.27000    0.56905    1.01545   1.00
C4       0.22900    0.49956    1.00004   1.00
C3c      0.20757    0.50656    0.96582   1.00
H1       0.22275    0.51199    0.93871   1.00
C3d      0.20865    0.49199    1.03494   1.00
C3       0.16646    0.50723    0.96605   1.00
O2       0.14752    0.50951    0.93071   1.00
C3       0.16773    0.49337    1.03543   1.00
H1       0.15343    0.48876    1.06316   1.00
C2       0.14561    0.50083    1.00118   1.00
C5       0.27121    0.57820    1.05560   1.00
H2       0.30162    0.58247    1.06633   1.00
H2       0.25734    0.55472    1.07340   1.00
C5       0.24878    0.61600    1.06144   1.00
H2       0.21871    0.61208    1.04971   1.00
H2       0.26309    0.63930    1.04383   1.00
C5       0.24746    0.62740    1.10470   1.00
H2       0.27740    0.63109    1.11666   1.00
H2       0.23197    0.60478    1.12210   1.00
H2       0.23170    0.65553    1.10829   1.00
C5       0.23895    0.44841    1.07511   1.00
C5       0.13930    0.54894    0.92174   1.00
H2       0.25912    0.43850    1.05170   1.00
H2       0.21288    0.42891    1.07538   1.00
H2       0.16700    0.56586    0.91917   1.00
H2       0.12105    0.56342    0.94461   1.00
H2       0.05945    0.57490    0.89152   1.00
H2       0.30750    0.40508    1.09810   1.00
H2       0.26234    0.38115    1.11231   1.00
C2       0.35395    0.50149    1.00210   1.00
C3       0.33403    0.46679    0.99226   1.00
O2       0.35326    0.43143    0.99281   1.00
C3       0.33174    0.53556    1.00923   1.00
H1       0.34615    0.56282    1.01583   1.00
C3a      0.29287    0.46663    0.99078   1.00
H1       0.27798    0.43933    0.98540   1.00
C3b      0.29078    0.53500    1.00895   1.00
C4       0.27100    0.50035    0.99977   1.00
O_3      0.22833    0.48786    1.06996   1.00
C5       0.36280    0.41981    0.95448   1.00
H2       0.33609    0.41673    0.93606   1.00
C5       0.38334    0.38026    0.95752   1.00
H2       0.38274    0.44132    0.94041   1.00
H2       0.36077    0.35721    0.96135   1.00
H2       0.40101    0.38055    0.98481   1.00
C5       0.40931    0.37119    0.92191   1.00
H2       0.39189    0.37407    0.89471   1.00
H2       0.42109    0.34096    0.92364   1.00
H2       0.43506    0.39119    0.92054   1.00
C5       0.25980    0.44517    1.11421   1.00
H2       0.23782    0.44852    1.13791   1.00
H2       0.28045    0.47015    1.11684   1.00
C5       0.28197    0.40631    1.11830   1.00
H2       0.29334    0.40320    1.14851   1.00
C5       0.88227    0.54850    1.11739   1.00
H2       0.89755    0.51995    1.11851   1.00
H2       0.86099    0.54813    1.14184   1.00
C5       0.91219    0.58185    1.12305   1.00
H2       0.91890    0.58610    1.15455   1.00
H2       0.90040    0.60956    1.11089   1.00
O_3      0.73000    0.56905    0.98455   1.00
C4       0.77100    0.49956    0.99996   1.00
C3c      0.79243    0.50656    1.03418   1.00
H1       0.77725    0.51199    1.06129   1.00
C3d      0.79135    0.49199    0.96506   1.00
C3       0.83354    0.50723    1.03395   1.00
O2       0.85248    0.50951    1.06929   1.00
C3       0.83227    0.49337    0.96457   1.00
H1       0.84657    0.48876    0.93684   1.00
C2       0.85439    0.50083    0.99882   1.00
C5       0.72879    0.57820    0.94440   1.00
H2       0.69838    0.58247    0.93367   1.00
H2       0.74266    0.55472    0.92660   1.00
C5       0.75122    0.61600    0.93856   1.00
H2       0.78129    0.61208    0.95029   1.00
H2       0.73691    0.63930    0.95617   1.00
C5       0.75254    0.62740    0.89530   1.00
H2       0.72260    0.63109    0.88334   1.00
H2       0.76803    0.60478    0.87790   1.00
H2       0.76830    0.65553    0.89171   1.00
C5       0.76105    0.44841    0.92489   1.00
C5       0.86070    0.54894    1.07826   1.00
H2       0.74088    0.43850    0.94830   1.00
H2       0.78712    0.42891    0.92462   1.00
H2       0.83300    0.56586    1.08083   1.00
H2       0.87895    0.56342    1.05539   1.00
H2       0.94055    0.57490    1.10848   1.00
H2       0.69250    0.40508    0.90190   1.00
H2       0.73766    0.38115    0.88769   1.00
C2       0.64605    0.50149    0.99790   1.00
C3       0.66597    0.46679    1.00774   1.00
O2       0.64674    0.43143    1.00719   1.00
C3       0.66826    0.53556    0.99077   1.00
H1       0.65385    0.56282    0.98417   1.00
C3a      0.70713    0.46663    1.00922   1.00
H1       0.72202    0.43933    1.01460   1.00
C3b      0.70922    0.53500    0.99105   1.00
C4       0.72900    0.50035    1.00023   1.00
O_3      0.77167    0.48786    0.93004   1.00
C5       0.63720    0.41981    1.04552   1.00
H2       0.66391    0.41673    1.06394   1.00
C5       0.61666    0.38026    1.04248   1.00
H2       0.61726    0.44132    1.05959   1.00
H2       0.63923    0.35721    1.03865   1.00
H2       0.59899    0.38055    1.01519   1.00
C5       0.59069    0.37119    1.07809   1.00
H2       0.60811    0.37407    1.10529   1.00
H2       0.57891    0.34096    1.07636   1.00
H2       0.56494    0.39119    1.07946   1.00
C5       0.74020    0.44517    0.88579   1.00
H2       0.76218    0.44852    0.86209   1.00
H2       0.71955    0.47015    0.88316   1.00
C5       0.71803    0.40631    0.88170   1.00
H2       0.70666    0.40320    0.85149   1.00
C5       0.38261    0.11773    1.04850   1.00
H2       0.38149    0.10245    1.01995   1.00
H2       0.35816    0.13901    1.04813   1.00
C5       0.37695    0.08781    1.08185   1.00
H2       0.34545    0.08110    1.08610   1.00
H2       0.38911    0.09960    1.10956   1.00
O_3      0.51545    0.27000    1.06905   1.00
C4       0.50004    0.22900    0.99956   1.00
C3c      0.46582    0.20757    1.00656   1.00
H1       0.43871    0.22275    1.01199   1.00
C3d      0.53494    0.20865    0.99199   1.00
C3       0.46605    0.16646    1.00723   1.00
O2       0.43071    0.14752    1.00951   1.00
C3       0.53543    0.16773    0.99337   1.00
H1       0.56316    0.15343    0.98876   1.00
C2       0.50118    0.14561    1.00083   1.00
C5       0.55560    0.27121    1.07820   1.00
H2       0.56633    0.30162    1.08247   1.00
H2       0.57340    0.25734    1.05472   1.00
C5       0.56144    0.24878    1.11600   1.00
H2       0.54971    0.21871    1.11208   1.00
H2       0.54383    0.26309    1.13930   1.00
C5       0.60470    0.24746    1.12740   1.00
H2       0.61666    0.27740    1.13109   1.00
H2       0.62210    0.23197    1.10478   1.00
H2       0.60829    0.23170    1.15553   1.00
C5       0.57511    0.23895    0.94841   1.00
C5       0.42174    0.13930    1.04894   1.00
H2       0.55170    0.25912    0.93850   1.00
H2       0.57538    0.21288    0.92891   1.00
H2       0.41917    0.16700    1.06586   1.00
H2       0.44461    0.12105    1.06342   1.00
H2       0.39152    0.05945    1.07490   1.00
H2       0.59810    0.30750    0.90508   1.00
H2       0.61231    0.26234    0.88115   1.00
C2       0.50210    0.35395    1.00149   1.00
C3       0.49226    0.33403    0.96679   1.00
O2       0.49281    0.35326    0.93143   1.00
C3       0.50923    0.33174    1.03556   1.00
H1       0.51583    0.34615    1.06282   1.00
C3a      0.49078    0.29287    0.96663   1.00
H1       0.48540    0.27798    0.93933   1.00
C3b      0.50895    0.29078    1.03500   1.00
C4       0.49977    0.27100    1.00035   1.00
O_3      0.56996    0.22833    0.98786   1.00
C5       0.45448    0.36280    0.91981   1.00
H2       0.43606    0.33609    0.91673   1.00
C5       0.45752    0.38334    0.88026   1.00
H2       0.44041    0.38274    0.94132   1.00
H2       0.46135    0.36077    0.85721   1.00
H2       0.48481    0.40101    0.88055   1.00
C5       0.42191    0.40931    0.87119   1.00
H2       0.39471    0.39189    0.87407   1.00
H2       0.42364    0.42109    0.84096   1.00
H2       0.42054    0.43506    0.89119   1.00
C5       0.61421    0.25980    0.94517   1.00
H2       0.63791    0.23782    0.94852   1.00
H2       0.61684    0.28045    0.97015   1.00
C5       0.61830    0.28197    0.90631   1.00
H2       0.64851    0.29334    0.90320   1.00
C5       0.54850    0.38261    0.61773   1.00
H2       0.51995    0.38149    0.60245   1.00
H2       0.54813    0.35816    0.63901   1.00
C5       0.58185    0.37695    0.58781   1.00
H2       0.58610    0.34545    0.58110   1.00
H2       0.60956    0.38911    0.59960   1.00
O_3      0.56905    0.51545    0.77000   1.00
C4       0.49956    0.50004    0.72900   1.00
C3c      0.50656    0.46582    0.70757   1.00
H1       0.51199    0.43871    0.72275   1.00
C3d      0.49199    0.53494    0.70865   1.00
C3       0.50723    0.46605    0.66646   1.00
O2       0.50951    0.43071    0.64752   1.00
C3       0.49337    0.53543    0.66773   1.00
H1       0.48876    0.56316    0.65343   1.00
C2       0.50083    0.50118    0.64561   1.00
C5       0.57820    0.55560    0.77121   1.00
H2       0.58247    0.56633    0.80162   1.00
H2       0.55472    0.57340    0.75734   1.00
C5       0.61600    0.56144    0.74878   1.00
H2       0.61208    0.54971    0.71871   1.00
H2       0.63930    0.54383    0.76309   1.00
C5       0.62740    0.60470    0.74746   1.00
H2       0.63109    0.61666    0.77740   1.00
H2       0.60478    0.62210    0.73197   1.00
H2       0.65553    0.60829    0.73170   1.00
C5       0.44841    0.57511    0.73895   1.00
C5       0.54894    0.42174    0.63930   1.00
H2       0.43850    0.55170    0.75912   1.00
H2       0.42891    0.57538    0.71288   1.00
H2       0.56586    0.41917    0.66700   1.00
H2       0.56342    0.44461    0.62105   1.00
H2       0.57490    0.39152    0.55945   1.00
H2       0.40508    0.59810    0.80750   1.00
H2       0.38115    0.61231    0.76234   1.00
C2       0.50149    0.50210    0.85395   1.00
C3       0.46679    0.49226    0.83403   1.00
O2       0.43143    0.49281    0.85326   1.00
C3       0.53556    0.50923    0.83174   1.00
H1       0.56282    0.51583    0.84615   1.00
C3a      0.46663    0.49078    0.79287   1.00
H1       0.43933    0.48540    0.77798   1.00
C3b      0.53500    0.50895    0.79078   1.00
C4       0.50035    0.49977    0.77100   1.00
O_3      0.48786    0.56996    0.72833   1.00
C5       0.41981    0.45448    0.86280   1.00
H2       0.41673    0.43606    0.83609   1.00
C5       0.38026    0.45752    0.88334   1.00
H2       0.44132    0.44041    0.88274   1.00
H2       0.35721    0.46135    0.86077   1.00
H2       0.38055    0.48481    0.90101   1.00
C5       0.37119    0.42191    0.90931   1.00
H2       0.37407    0.39471    0.89189   1.00
H2       0.34096    0.42364    0.92109   1.00
H2       0.39119    0.42054    0.93506   1.00
C5       0.44517    0.61421    0.75980   1.00
H2       0.44852    0.63791    0.73782   1.00
H2       0.47015    0.61684    0.78045   1.00
C5       0.40631    0.61830    0.78197   1.00
H2       0.40320    0.64851    0.79334   1.00
C5       0.54850    1.11739    0.88227   1.00
H2       0.51995    1.11851    0.89755   1.00
H2       0.54813    1.14184    0.86099   1.00
C5       0.58185    1.12305    0.91219   1.00
H2       0.58610    1.15455    0.91890   1.00
H2       0.60956    1.11089    0.90040   1.00
O_3      0.56905    0.98455    0.73000   1.00
C4       0.49956    0.99996    0.77100   1.00
C3c      0.50656    1.03418    0.79243   1.00
H1       0.51199    1.06129    0.77725   1.00
C3d      0.49199    0.96506    0.79135   1.00
C3       0.50723    1.03395    0.83354   1.00
O2       0.50951    1.06929    0.85248   1.00
C3       0.49337    0.96457    0.83227   1.00
H1       0.48876    0.93684    0.84657   1.00
C2       0.50083    0.99882    0.85439   1.00
C5       0.57820    0.94440    0.72879   1.00
H2       0.58247    0.93367    0.69838   1.00
H2       0.55472    0.92660    0.74266   1.00
C5       0.61600    0.93856    0.75122   1.00
H2       0.61208    0.95029    0.78129   1.00
H2       0.63930    0.95617    0.73691   1.00
C5       0.62740    0.89530    0.75254   1.00
H2       0.63109    0.88334    0.72260   1.00
H2       0.60478    0.87790    0.76803   1.00
H2       0.65553    0.89171    0.76830   1.00
C5       0.44841    0.92489    0.76105   1.00
C5       0.54894    1.07826    0.86070   1.00
H2       0.43850    0.94830    0.74088   1.00
H2       0.42891    0.92462    0.78712   1.00
H2       0.56586    1.08083    0.83300   1.00
H2       0.56342    1.05539    0.87895   1.00
H2       0.57490    1.10848    0.94055   1.00
H2       0.40508    0.90190    0.69250   1.00
H2       0.38115    0.88769    0.73766   1.00
C2       0.50149    0.99790    0.64605   1.00
C3       0.46679    1.00774    0.66597   1.00
O2       0.43143    1.00719    0.64674   1.00
C3       0.53556    0.99077    0.66826   1.00
H1       0.56282    0.98417    0.65385   1.00
C3a      0.46663    1.00922    0.70713   1.00
H1       0.43933    1.01460    0.72202   1.00
C3b      0.53500    0.99105    0.70922   1.00
C4       0.50035    1.00023    0.72900   1.00
O_3      0.48786    0.93004    0.77167   1.00
C5       0.41981    1.04552    0.63720   1.00
H2       0.41673    1.06394    0.66391   1.00
C5       0.38026    1.04248    0.61666   1.00
H2       0.44132    1.05959    0.61726   1.00
H2       0.35721    1.03865    0.63923   1.00
H2       0.38055    1.01519    0.59899   1.00
C5       0.37119    1.07809    0.59069   1.00
H2       0.37407    1.10529    0.60811   1.00
H2       0.34096    1.07636    0.57891   1.00
H2       0.39119    1.07946    0.56494   1.00
C5       0.44517    0.88579    0.74020   1.00
H2       0.44852    0.86209    0.76218   1.00
H2       0.47015    0.88316    0.71955   1.00
C5       0.40631    0.88170    0.71803   1.00
H2       0.40320    0.85149    0.70666   1.00
C5       0.61739    1.38227    0.54850   1.00
H2       0.61851    1.39755    0.51995   1.00
H2       0.64184    1.36099    0.54813   1.00
C5       0.62305    1.41219    0.58185   1.00
H2       0.65455    1.41890    0.58610   1.00
H2       0.61089    1.40040    0.60956   1.00
O_3      0.48455    1.23000    0.56905   1.00
C4       0.49996    1.27100    0.49956   1.00
C3c      0.53418    1.29243    0.50656   1.00
H1       0.56129    1.27725    0.51199   1.00
C3d      0.46506    1.29135    0.49199   1.00
C3       0.53395    1.33354    0.50723   1.00
O2       0.56929    1.35248    0.50951   1.00
C3       0.46457    1.33227    0.49337   1.00
H1       0.43684    1.34657    0.48876   1.00
C2       0.49882    1.35439    0.50083   1.00
C5       0.44440    1.22879    0.57820   1.00
H2       0.43367    1.19838    0.58247   1.00
H2       0.42660    1.24266    0.55472   1.00
C5       0.43856    1.25122    0.61600   1.00
H2       0.45029    1.28129    0.61208   1.00
H2       0.45617    1.23691    0.63930   1.00
C5       0.39530    1.25254    0.62740   1.00
H2       0.38334    1.22260    0.63109   1.00
H2       0.37790    1.26803    0.60478   1.00
H2       0.39171    1.26830    0.65553   1.00
C5       0.42489    1.26105    0.44841   1.00
C5       0.57826    1.36070    0.54894   1.00
H2       0.44830    1.24088    0.43850   1.00
H2       0.42462    1.28712    0.42891   1.00
H2       0.58083    1.33300    0.56586   1.00
H2       0.55539    1.37895    0.56342   1.00
H2       0.60848    1.44055    0.57490   1.00
H2       0.40190    1.19250    0.40508   1.00
H2       0.38769    1.23766    0.38115   1.00
C2       0.49790    1.14605    0.50149   1.00
C3       0.50774    1.16597    0.46679   1.00
O2       0.50719    1.14674    0.43143   1.00
C3       0.49077    1.16826    0.53556   1.00
H1       0.48417    1.15385    0.56282   1.00
C3a      0.50922    1.20713    0.46663   1.00
H1       0.51460    1.22202    0.43933   1.00
C3b      0.49105    1.20922    0.53500   1.00
C4       0.50023    1.22900    0.50035   1.00
O_3      0.43004    1.27167    0.48786   1.00
C5       0.54552    1.13720    0.41981   1.00
H2       0.56394    1.16391    0.41673   1.00
C5       0.54248    1.11666    0.38026   1.00
H2       0.55959    1.11726    0.44132   1.00
H2       0.53865    1.13923    0.35721   1.00
H2       0.51519    1.09899    0.38055   1.00
C5       0.57809    1.09069    0.37119   1.00
H2       0.60529    1.10811    0.37407   1.00
H2       0.57636    1.07891    0.34096   1.00
H2       0.57946    1.06494    0.39119   1.00
C5       0.38579    1.24020    0.44517   1.00
H2       0.36209    1.26218    0.44852   1.00
H2       0.38316    1.21955    0.47015   1.00
C5       0.38170    1.21803    0.40631   1.00
H2       0.35149    1.20666    0.40320   1.00
C5       0.11773    1.04850    0.38261   1.00
H2       0.10245    1.01995    0.38149   1.00
H2       0.13901    1.04813    0.35816   1.00
C5       0.08781    1.08185    0.37695   1.00
H2       0.08110    1.08610    0.34545   1.00
H2       0.09960    1.10956    0.38911   1.00
O_3      0.27000    1.06905    0.51545   1.00
C4       0.22900    0.99956    0.50004   1.00
C3c      0.20757    1.00656    0.46582   1.00
H1       0.22275    1.01199    0.43871   1.00
C3d      0.20865    0.99199    0.53494   1.00
C3       0.16646    1.00723    0.46605   1.00
O2       0.14752    1.00951    0.43071   1.00
C3       0.16773    0.99337    0.53543   1.00
H1       0.15343    0.98876    0.56316   1.00
C2       0.14561    1.00083    0.50118   1.00
C5       0.27121    1.07820    0.55560   1.00
H2       0.30162    1.08247    0.56633   1.00
H2       0.25734    1.05472    0.57340   1.00
C5       0.24878    1.11600    0.56144   1.00
H2       0.21871    1.11208    0.54971   1.00
H2       0.26309    1.13930    0.54383   1.00
C5       0.24746    1.12740    0.60470   1.00
H2       0.27740    1.13109    0.61666   1.00
H2       0.23197    1.10478    0.62210   1.00
H2       0.23170    1.15553    0.60829   1.00
C5       0.23895    0.94841    0.57511   1.00
C5       0.13930    1.04894    0.42174   1.00
H2       0.25912    0.93850    0.55170   1.00
H2       0.21288    0.92891    0.57538   1.00
H2       0.16700    1.06586    0.41917   1.00
H2       0.12105    1.06342    0.44461   1.00
H2       0.05945    1.07490    0.39152   1.00
H2       0.30750    0.90508    0.59810   1.00
H2       0.26234    0.88115    0.61231   1.00
C2       0.35395    1.00149    0.50210   1.00
C3       0.33403    0.96679    0.49226   1.00
O2       0.35326    0.93143    0.49281   1.00
C3       0.33174    1.03556    0.50923   1.00
H1       0.34615    1.06282    0.51583   1.00
C3a      0.29287    0.96663    0.49078   1.00
H1       0.27798    0.93933    0.48540   1.00
C3b      0.29078    1.03500    0.50895   1.00
C4       0.27100    1.00035    0.49977   1.00
O_3      0.22833    0.98786    0.56996   1.00
C5       0.36280    0.91981    0.45448   1.00
H2       0.33609    0.91673    0.43606   1.00
C5       0.38334    0.88026    0.45752   1.00
H2       0.38274    0.94132    0.44041   1.00
H2       0.36077    0.85721    0.46135   1.00
H2       0.40101    0.88055    0.48481   1.00
C5       0.40931    0.87119    0.42191   1.00
H2       0.39189    0.87407    0.39471   1.00
H2       0.42109    0.84096    0.42364   1.00
H2       0.43506    0.89119    0.42054   1.00
C5       0.25980    0.94517    0.61421   1.00
H2       0.23782    0.94852    0.63791   1.00
H2       0.28045    0.97015    0.61684   1.00
C5       0.28197    0.90631    0.61830   1.00
H2       0.29334    0.90320    0.64851   1.00
C5       0.88227    1.04850    0.61739   1.00
H2       0.89755    1.01995    0.61851   1.00
H2       0.86099    1.04813    0.64184   1.00
C5       0.91219    1.08185    0.62305   1.00
H2       0.91890    1.08610    0.65455   1.00
H2       0.90040    1.10956    0.61089   1.00
O_3      0.73000    1.06905    0.48455   1.00
C4       0.77100    0.99956    0.49996   1.00
C3c      0.79243    1.00656    0.53418   1.00
H1       0.77725    1.01199    0.56129   1.00
C3d      0.79135    0.99199    0.46506   1.00
C3       0.83354    1.00723    0.53395   1.00
O2       0.85248    1.00951    0.56929   1.00
C3       0.83227    0.99337    0.46457   1.00
H1       0.84657    0.98876    0.43684   1.00
C2       0.85439    1.00083    0.49882   1.00
C5       0.72879    1.07820    0.44440   1.00
H2       0.69838    1.08247    0.43367   1.00
H2       0.74266    1.05472    0.42660   1.00
C5       0.75122    1.11600    0.43856   1.00
H2       0.78129    1.11208    0.45029   1.00
H2       0.73691    1.13930    0.45617   1.00
C5       0.75254    1.12740    0.39530   1.00
H2       0.72260    1.13109    0.38334   1.00
H2       0.76803    1.10478    0.37790   1.00
H2       0.76830    1.15553    0.39171   1.00
C5       0.76105    0.94841    0.42489   1.00
C5       0.86070    1.04894    0.57826   1.00
H2       0.74088    0.93850    0.44830   1.00
H2       0.78712    0.92891    0.42462   1.00
H2       0.83300    1.06586    0.58083   1.00
H2       0.87895    1.06342    0.55539   1.00
H2       0.94055    1.07490    0.60848   1.00
H2       0.69250    0.90508    0.40190   1.00
H2       0.73766    0.88115    0.38769   1.00
C2       0.64605    1.00149    0.49790   1.00
C3       0.66597    0.96679    0.50774   1.00
O2       0.64674    0.93143    0.50719   1.00
C3       0.66826    1.03556    0.49077   1.00
H1       0.65385    1.06282    0.48417   1.00
C3a      0.70713    0.96663    0.50922   1.00
H1       0.72202    0.93933    0.51460   1.00
C3b      0.70922    1.03500    0.49105   1.00
C4       0.72900    1.00035    0.50023   1.00
O_3      0.77167    0.98786    0.43004   1.00
C5       0.63720    0.91981    0.54552   1.00
H2       0.66391    0.91673    0.56394   1.00
C5       0.61666    0.88026    0.54248   1.00
H2       0.61726    0.94132    0.55959   1.00
H2       0.63923    0.85721    0.53865   1.00
H2       0.59899    0.88055    0.51519   1.00
C5       0.59069    0.87119    0.57809   1.00
H2       0.60811    0.87407    0.60529   1.00
H2       0.57891    0.84096    0.57636   1.00
H2       0.56494    0.89119    0.57946   1.00
C5       0.74020    0.94517    0.38579   1.00
H2       0.76218    0.94852    0.36209   1.00
H2       0.71955    0.97015    0.38316   1.00
C5       0.71803    0.90631    0.38170   1.00
H2       0.70666    0.90320    0.35149   1.00
C5       0.38261    0.61773    0.54850   1.00
H2       0.38149    0.60245    0.51995   1.00
H2       0.35816    0.63901    0.54813   1.00
C5       0.37695    0.58781    0.58185   1.00
H2       0.34545    0.58110    0.58610   1.00
H2       0.38911    0.59960    0.60956   1.00
O_3      0.51545    0.77000    0.56905   1.00
C4       0.50004    0.72900    0.49956   1.00
C3c      0.46582    0.70757    0.50656   1.00
H1       0.43871    0.72275    0.51199   1.00
C3d      0.53494    0.70865    0.49199   1.00
C3       0.46605    0.66646    0.50723   1.00
O2       0.43071    0.64752    0.50951   1.00
C3       0.53543    0.66773    0.49337   1.00
H1       0.56316    0.65343    0.48876   1.00
C2       0.50118    0.64561    0.50083   1.00
C5       0.55560    0.77121    0.57820   1.00
H2       0.56633    0.80162    0.58247   1.00
H2       0.57340    0.75734    0.55472   1.00
C5       0.56144    0.74878    0.61600   1.00
H2       0.54971    0.71871    0.61208   1.00
H2       0.54383    0.76309    0.63930   1.00
C5       0.60470    0.74746    0.62740   1.00
H2       0.61666    0.77740    0.63109   1.00
H2       0.62210    0.73197    0.60478   1.00
H2       0.60829    0.73170    0.65553   1.00
C5       0.57511    0.73895    0.44841   1.00
C5       0.42174    0.63930    0.54894   1.00
H2       0.55170    0.75912    0.43850   1.00
H2       0.57538    0.71288    0.42891   1.00
H2       0.41917    0.66700    0.56586   1.00
H2       0.44461    0.62105    0.56342   1.00
H2       0.39152    0.55945    0.57490   1.00
H2       0.59810    0.80750    0.40508   1.00
H2       0.61231    0.76234    0.38115   1.00
C2       0.50210    0.85395    0.50149   1.00
C3       0.49226    0.83403    0.46679   1.00
O2       0.49281    0.85326    0.43143   1.00
C3       0.50923    0.83174    0.53556   1.00
H1       0.51583    0.84615    0.56282   1.00
C3a      0.49078    0.79287    0.46663   1.00
H1       0.48540    0.77798    0.43933   1.00
C3b      0.50895    0.79078    0.53500   1.00
C4       0.49977    0.77100    0.50035   1.00
O_3      0.56996    0.72833    0.48786   1.00
C5       0.45448    0.86280    0.41981   1.00
H2       0.43606    0.83609    0.41673   1.00
C5       0.45752    0.88334    0.38026   1.00
H2       0.44041    0.88274    0.44132   1.00
H2       0.46135    0.86077    0.35721   1.00
H2       0.48481    0.90101    0.38055   1.00
C5       0.42191    0.90931    0.37119   1.00
H2       0.39471    0.89189    0.37407   1.00
H2       0.42364    0.92109    0.34096   1.00
H2       0.42054    0.93506    0.39119   1.00
C5       0.61421    0.75980    0.44517   1.00
H2       0.63791    0.73782    0.44852   1.00
H2       0.61684    0.78045    0.47015   1.00
C5       0.61830    0.78197    0.40631   1.00
H2       0.64851    0.79334    0.40320   1.00
C5       0.54850    0.88261    0.11773   1.00
H2       0.51995    0.88149    0.10245   1.00
H2       0.54813    0.85816    0.13901   1.00
C5       0.58185    0.87695    0.08781   1.00
H2       0.58610    0.84545    0.08110   1.00
H2       0.60956    0.88911    0.09960   1.00
O_3      0.56905    1.01545    0.27000   1.00
C4       0.49956    1.00004    0.22900   1.00
C3c      0.50656    0.96582    0.20757   1.00
H1       0.51199    0.93871    0.22275   1.00
C3d      0.49199    1.03494    0.20865   1.00
C3       0.50723    0.96605    0.16646   1.00
O2       0.50951    0.93071    0.14752   1.00
C3       0.49337    1.03543    0.16773   1.00
H1       0.48876    1.06316    0.15343   1.00
C2       0.50083    1.00118    0.14561   1.00
C5       0.57820    1.05560    0.27121   1.00
H2       0.58247    1.06633    0.30162   1.00
H2       0.55472    1.07340    0.25734   1.00
C5       0.61600    1.06144    0.24878   1.00
H2       0.61208    1.04971    0.21871   1.00
H2       0.63930    1.04383    0.26309   1.00
C5       0.62740    1.10470    0.24746   1.00
H2       0.63109    1.11666    0.27740   1.00
H2       0.60478    1.12210    0.23197   1.00
H2       0.65553    1.10829    0.23170   1.00
C5       0.44841    1.07511    0.23895   1.00
C5       0.54894    0.92174    0.13930   1.00
H2       0.43850    1.05170    0.25912   1.00
H2       0.42891    1.07538    0.21288   1.00
H2       0.56586    0.91917    0.16700   1.00
H2       0.56342    0.94461    0.12105   1.00
H2       0.57490    0.89152    0.05945   1.00
H2       0.40508    1.09810    0.30750   1.00
H2       0.38115    1.11231    0.26234   1.00
C2       0.50149    1.00210    0.35395   1.00
C3       0.46679    0.99226    0.33403   1.00
O2       0.43143    0.99281    0.35326   1.00
C3       0.53556    1.00923    0.33174   1.00
H1       0.56282    1.01583    0.34615   1.00
C3a      0.46663    0.99078    0.29287   1.00
H1       0.43933    0.98540    0.27798   1.00
C3b      0.53500    1.00895    0.29078   1.00
C4       0.50035    0.99977    0.27100   1.00
O_3      0.48786    1.06996    0.22833   1.00
C5       0.41981    0.95448    0.36280   1.00
H2       0.41673    0.93606    0.33609   1.00
C5       0.38026    0.95752    0.38334   1.00
H2       0.44132    0.94041    0.38274   1.00
H2       0.35721    0.96135    0.36077   1.00
H2       0.38055    0.98481    0.40101   1.00
C5       0.37119    0.92191    0.40931   1.00
H2       0.37407    0.89471    0.39189   1.00
H2       0.34096    0.92364    0.42109   1.00
H2       0.39119    0.92054    0.43506   1.00
C5       0.44517    1.11421    0.25980   1.00
H2       0.44852    1.13791    0.23782   1.00
H2       0.47015    1.11684    0.28045   1.00
C5       0.40631    1.11830    0.28197   1.00
H2       0.40320    1.14851    0.29334   1.00
C5       1.04850    0.61739    0.88227   1.00
H2       1.01995    0.61851    0.89755   1.00
H2       1.04813    0.64184    0.86099   1.00
C5       1.08185    0.62305    0.91219   1.00
H2       1.08610    0.65455    0.91890   1.00
H2       1.10956    0.61089    0.90040   1.00
O_3      1.06905    0.48455    0.73000   1.00
C4       0.99956    0.49996    0.77100   1.00
C3c      1.00656    0.53418    0.79243   1.00
H1       1.01199    0.56129    0.77725   1.00
C3d      0.99199    0.46506    0.79135   1.00
C3       1.00723    0.53395    0.83354   1.00
O2       1.00951    0.56929    0.85248   1.00
C3       0.99337    0.46457    0.83227   1.00
H1       0.98876    0.43684    0.84657   1.00
C2       1.00083    0.49882    0.85439   1.00
C5       1.07820    0.44440    0.72879   1.00
H2       1.08247    0.43367    0.69838   1.00
H2       1.05472    0.42660    0.74266   1.00
C5       1.11600    0.43856    0.75122   1.00
H2       1.11208    0.45029    0.78129   1.00
H2       1.13930    0.45617    0.73691   1.00
C5       1.12740    0.39530    0.75254   1.00
H2       1.13109    0.38334    0.72260   1.00
H2       1.10478    0.37790    0.76803   1.00
H2       1.15553    0.39171    0.76830   1.00
C5       0.94841    0.42489    0.76105   1.00
C5       1.04894    0.57826    0.86070   1.00
H2       0.93850    0.44830    0.74088   1.00
H2       0.92891    0.42462    0.78712   1.00
H2       1.06586    0.58083    0.83300   1.00
H2       1.06342    0.55539    0.87895   1.00
H2       1.07490    0.60848    0.94055   1.00
H2       0.90508    0.40190    0.69250   1.00
H2       0.88115    0.38769    0.73766   1.00
C2       1.00149    0.49790    0.64605   1.00
C3       0.96679    0.50774    0.66597   1.00
O2       0.93143    0.50719    0.64674   1.00
C3       1.03556    0.49077    0.66826   1.00
H1       1.06282    0.48417    0.65385   1.00
C3a      0.96663    0.50922    0.70713   1.00
H1       0.93933    0.51460    0.72202   1.00
C3b      1.03500    0.49105    0.70922   1.00
C4       1.00035    0.50023    0.72900   1.00
O_3      0.98786    0.43004    0.77167   1.00
C5       0.91981    0.54552    0.63720   1.00
H2       0.91673    0.56394    0.66391   1.00
C5       0.88026    0.54248    0.61666   1.00
H2       0.94132    0.55959    0.61726   1.00
H2       0.85721    0.53865    0.63923   1.00
H2       0.88055    0.51519    0.59899   1.00
C5       0.87119    0.57809    0.59069   1.00
H2       0.87407    0.60529    0.60811   1.00
H2       0.84096    0.57636    0.57891   1.00
H2       0.89119    0.57946    0.56494   1.00
C5       0.94517    0.38579    0.74020   1.00
H2       0.94852    0.36209    0.76218   1.00
H2       0.97015    0.38316    0.71955   1.00
C5       0.90631    0.38170    0.71803   1.00
H2       0.90320    0.35149    0.70666   1.00
C5       1.11739    0.88227    0.54850   1.00
H2       1.11851    0.89755    0.51995   1.00
H2       1.14184    0.86099    0.54813   1.00
C5       1.12305    0.91219    0.58185   1.00
H2       1.15455    0.91890    0.58610   1.00
H2       1.11089    0.90040    0.60956   1.00
O_3      0.98455    0.73000    0.56905   1.00
C4       0.99996    0.77100    0.49956   1.00
C3c      1.03418    0.79243    0.50656   1.00
H1       1.06129    0.77725    0.51199   1.00
C3d      0.96506    0.79135    0.49199   1.00
C3       1.03395    0.83354    0.50723   1.00
O2       1.06929    0.85248    0.50951   1.00
C3       0.96457    0.83227    0.49337   1.00
H1       0.93684    0.84657    0.48876   1.00
C2       0.99882    0.85439    0.50083   1.00
C5       0.94440    0.72879    0.57820   1.00
H2       0.93367    0.69838    0.58247   1.00
H2       0.92660    0.74266    0.55472   1.00
C5       0.93856    0.75122    0.61600   1.00
H2       0.95029    0.78129    0.61208   1.00
H2       0.95617    0.73691    0.63930   1.00
C5       0.89530    0.75254    0.62740   1.00
H2       0.88334    0.72260    0.63109   1.00
H2       0.87790    0.76803    0.60478   1.00
H2       0.89171    0.76830    0.65553   1.00
C5       0.92489    0.76105    0.44841   1.00
C5       1.07826    0.86070    0.54894   1.00
H2       0.94830    0.74088    0.43850   1.00
H2       0.92462    0.78712    0.42891   1.00
H2       1.08083    0.83300    0.56586   1.00
H2       1.05539    0.87895    0.56342   1.00
H2       1.10848    0.94055    0.57490   1.00
H2       0.90190    0.69250    0.40508   1.00
H2       0.88769    0.73766    0.38115   1.00
C2       0.99790    0.64605    0.50149   1.00
C3       1.00774    0.66597    0.46679   1.00
O2       1.00719    0.64674    0.43143   1.00
C3       0.99077    0.66826    0.53556   1.00
H1       0.98417    0.65385    0.56282   1.00
C3a      1.00922    0.70713    0.46663   1.00
H1       1.01460    0.72202    0.43933   1.00
C3b      0.99105    0.70922    0.53500   1.00
C4       1.00023    0.72900    0.50035   1.00
O_3      0.93004    0.77167    0.48786   1.00
C5       1.04552    0.63720    0.41981   1.00
H2       1.06394    0.66391    0.41673   1.00
C5       1.04248    0.61666    0.38026   1.00
H2       1.05959    0.61726    0.44132   1.00
H2       1.03865    0.63923    0.35721   1.00
H2       1.01519    0.59899    0.38055   1.00
C5       1.07809    0.59069    0.37119   1.00
H2       1.10529    0.60811    0.37407   1.00
H2       1.07636    0.57891    0.34096   1.00
H2       1.07946    0.56494    0.39119   1.00
C5       0.88579    0.74020    0.44517   1.00
H2       0.86209    0.76218    0.44852   1.00
H2       0.88316    0.71955    0.47015   1.00
C5       0.88170    0.71803    0.40631   1.00
H2       0.85149    0.70666    0.40320   1.00
C5       0.61773    0.54850    0.38261   1.00
H2       0.60245    0.51995    0.38149   1.00
H2       0.63901    0.54813    0.35816   1.00
C5       0.58781    0.58185    0.37695   1.00
H2       0.58110    0.58610    0.34545   1.00
H2       0.59960    0.60956    0.38911   1.00
O_3      0.77000    0.56905    0.51545   1.00
C4       0.72900    0.49956    0.50004   1.00
C3c      0.70757    0.50656    0.46582   1.00
H1       0.72275    0.51199    0.43871   1.00
C3d      0.70865    0.49199    0.53494   1.00
C3       0.66646    0.50723    0.46605   1.00
O2       0.64752    0.50951    0.43071   1.00
C3       0.66773    0.49337    0.53543   1.00
H1       0.65343    0.48876    0.56316   1.00
C2       0.64561    0.50083    0.50118   1.00
C5       0.77121    0.57820    0.55560   1.00
H2       0.80162    0.58247    0.56633   1.00
H2       0.75734    0.55472    0.57340   1.00
C5       0.74878    0.61600    0.56144   1.00
H2       0.71871    0.61208    0.54971   1.00
H2       0.76309    0.63930    0.54383   1.00
C5       0.74746    0.62740    0.60470   1.00
H2       0.77740    0.63109    0.61666   1.00
H2       0.73197    0.60478    0.62210   1.00
H2       0.73170    0.65553    0.60829   1.00
C5       0.73895    0.44841    0.57511   1.00
C5       0.63930    0.54894    0.42174   1.00
H2       0.75912    0.43850    0.55170   1.00
H2       0.71288    0.42891    0.57538   1.00
H2       0.66700    0.56586    0.41917   1.00
H2       0.62105    0.56342    0.44461   1.00
H2       0.55945    0.57490    0.39152   1.00
H2       0.80750    0.40508    0.59810   1.00
H2       0.76234    0.38115    0.61231   1.00
C2       0.85395    0.50149    0.50210   1.00
C3       0.83403    0.46679    0.49226   1.00
O2       0.85326    0.43143    0.49281   1.00
C3       0.83174    0.53556    0.50923   1.00
H1       0.84615    0.56282    0.51583   1.00
C3a      0.79287    0.46663    0.49078   1.00
H1       0.77798    0.43933    0.48540   1.00
C3b      0.79078    0.53500    0.50895   1.00
C4       0.77100    0.50035    0.49977   1.00
O_3      0.72833    0.48786    0.56996   1.00
C5       0.86280    0.41981    0.45448   1.00
H2       0.83609    0.41673    0.43606   1.00
C5       0.88334    0.38026    0.45752   1.00
H2       0.88274    0.44132    0.44041   1.00
H2       0.86077    0.35721    0.46135   1.00
H2       0.90101    0.38055    0.48481   1.00
C5       0.90931    0.37119    0.42191   1.00
H2       0.89189    0.37407    0.39471   1.00
H2       0.92109    0.34096    0.42364   1.00
H2       0.93506    0.39119    0.42054   1.00
C5       0.75980    0.44517    0.61421   1.00
H2       0.73782    0.44852    0.63791   1.00
H2       0.78045    0.47015    0.61684   1.00
C5       0.78197    0.40631    0.61830   1.00
H2       0.79334    0.40320    0.64851   1.00
C5       1.38227    0.54850    0.61739   1.00
H2       1.39755    0.51995    0.61851   1.00
H2       1.36099    0.54813    0.64184   1.00
C5       1.41219    0.58185    0.62305   1.00
H2       1.41890    0.58610    0.65455   1.00
H2       1.40040    0.60956    0.61089   1.00
O_3      1.23000    0.56905    0.48455   1.00
C4       1.27100    0.49956    0.49996   1.00
C3c      1.29243    0.50656    0.53418   1.00
H1       1.27725    0.51199    0.56129   1.00
C3d      1.29135    0.49199    0.46506   1.00
C3       1.33354    0.50723    0.53395   1.00
O2       1.35248    0.50951    0.56929   1.00
C3       1.33227    0.49337    0.46457   1.00
H1       1.34657    0.48876    0.43684   1.00
C2       1.35439    0.50083    0.49882   1.00
C5       1.22879    0.57820    0.44440   1.00
H2       1.19838    0.58247    0.43367   1.00
H2       1.24266    0.55472    0.42660   1.00
C5       1.25122    0.61600    0.43856   1.00
H2       1.28129    0.61208    0.45029   1.00
H2       1.23691    0.63930    0.45617   1.00
C5       1.25254    0.62740    0.39530   1.00
H2       1.22260    0.63109    0.38334   1.00
H2       1.26803    0.60478    0.37790   1.00
H2       1.26830    0.65553    0.39171   1.00
C5       1.26105    0.44841    0.42489   1.00
C5       1.36070    0.54894    0.57826   1.00
H2       1.24088    0.43850    0.44830   1.00
H2       1.28712    0.42891    0.42462   1.00
H2       1.33300    0.56586    0.58083   1.00
H2       1.37895    0.56342    0.55539   1.00
H2       1.44055    0.57490    0.60848   1.00
H2       1.19250    0.40508    0.40190   1.00
H2       1.23766    0.38115    0.38769   1.00
C2       1.14605    0.50149    0.49790   1.00
C3       1.16597    0.46679    0.50774   1.00
O2       1.14674    0.43143    0.50719   1.00
C3       1.16826    0.53556    0.49077   1.00
H1       1.15385    0.56282    0.48417   1.00
C3a      1.20713    0.46663    0.50922   1.00
H1       1.22202    0.43933    0.51460   1.00
C3b      1.20922    0.53500    0.49105   1.00
C4       1.22900    0.50035    0.50023   1.00
O_3      1.27167    0.48786    0.43004   1.00
C5       1.13720    0.41981    0.54552   1.00
H2       1.16391    0.41673    0.56394   1.00
C5       1.11666    0.38026    0.54248   1.00
H2       1.11726    0.44132    0.55959   1.00
H2       1.13923    0.35721    0.53865   1.00
H2       1.09899    0.38055    0.51519   1.00
C5       1.09069    0.37119    0.57809   1.00
H2       1.10811    0.37407    0.60529   1.00
H2       1.07891    0.34096    0.57636   1.00
H2       1.06494    0.39119    0.57946   1.00
C5       1.24020    0.44517    0.38579   1.00
H2       1.26218    0.44852    0.36209   1.00
H2       1.21955    0.47015    0.38316   1.00
C5       1.21803    0.40631    0.38170   1.00
H2       1.20666    0.40320    0.35149   1.00
C5       0.88261    0.11773    0.54850   1.00
H2       0.88149    0.10245    0.51995   1.00
H2       0.85816    0.13901    0.54813   1.00
C5       0.87695    0.08781    0.58185   1.00
H2       0.84545    0.08110    0.58610   1.00
H2       0.88911    0.09960    0.60956   1.00
O_3      1.01545    0.27000    0.56905   1.00
C4       1.00004    0.22900    0.49956   1.00
C3c      0.96582    0.20757    0.50656   1.00
H1       0.93871    0.22275    0.51199   1.00
C3d      1.03494    0.20865    0.49199   1.00
C3       0.96605    0.16646    0.50723   1.00
O2       0.93071    0.14752    0.50951   1.00
C3       1.03543    0.16773    0.49337   1.00
H1       1.06316    0.15343    0.48876   1.00
C2       1.00118    0.14561    0.50083   1.00
C5       1.05560    0.27121    0.57820   1.00
H2       1.06633    0.30162    0.58247   1.00
H2       1.07340    0.25734    0.55472   1.00
C5       1.06144    0.24878    0.61600   1.00
H2       1.04971    0.21871    0.61208   1.00
H2       1.04383    0.26309    0.63930   1.00
C5       1.10470    0.24746    0.62740   1.00
H2       1.11666    0.27740    0.63109   1.00
H2       1.12210    0.23197    0.60478   1.00
H2       1.10829    0.23170    0.65553   1.00
C5       1.07511    0.23895    0.44841   1.00
C5       0.92174    0.13930    0.54894   1.00
H2       1.05170    0.25912    0.43850   1.00
H2       1.07538    0.21288    0.42891   1.00
H2       0.91917    0.16700    0.56586   1.00
H2       0.94461    0.12105    0.56342   1.00
H2       0.89152    0.05945    0.57490   1.00
H2       1.09810    0.30750    0.40508   1.00
H2       1.11231    0.26234    0.38115   1.00
C2       1.00210    0.35395    0.50149   1.00
C3       0.99226    0.33403    0.46679   1.00
O2       0.99281    0.35326    0.43143   1.00
C3       1.00923    0.33174    0.53556   1.00
H1       1.01583    0.34615    0.56282   1.00
C3a      0.99078    0.29287    0.46663   1.00
H1       0.98540    0.27798    0.43933   1.00
C3b      1.00895    0.29078    0.53500   1.00
C4       0.99977    0.27100    0.50035   1.00
O_3      1.06996    0.22833    0.48786   1.00
C5       0.95448    0.36280    0.41981   1.00
H2       0.93606    0.33609    0.41673   1.00
C5       0.95752    0.38334    0.38026   1.00
H2       0.94041    0.38274    0.44132   1.00
H2       0.96135    0.36077    0.35721   1.00
H2       0.98481    0.40101    0.38055   1.00
C5       0.92191    0.40931    0.37119   1.00
H2       0.89471    0.39189    0.37407   1.00
H2       0.92364    0.42109    0.34096   1.00
H2       0.92054    0.43506    0.39119   1.00
C5       1.11421    0.25980    0.44517   1.00
H2       1.13791    0.23782    0.44852   1.00
H2       1.11684    0.28045    0.47015   1.00
C5       1.11830    0.28197    0.40631   1.00
H2       1.14851    0.29334    0.40320   1.00
C5       1.04850    0.38261    0.11773   1.00
H2       1.01995    0.38149    0.10245   1.00
H2       1.04813    0.35816    0.13901   1.00
C5       1.08185    0.37695    0.08781   1.00
H2       1.08610    0.34545    0.08110   1.00
H2       1.10956    0.38911    0.09960   1.00
O_3      1.06905    0.51545    0.27000   1.00
C4       0.99956    0.50004    0.22900   1.00
C3c      1.00656    0.46582    0.20757   1.00
H1       1.01199    0.43871    0.22275   1.00
C3d      0.99199    0.53494    0.20865   1.00
C3       1.00723    0.46605    0.16646   1.00
O2       1.00951    0.43071    0.14752   1.00
C3       0.99337    0.53543    0.16773   1.00
H1       0.98876    0.56316    0.15343   1.00
C2       1.00083    0.50118    0.14561   1.00
C5       1.07820    0.55560    0.27121   1.00
H2       1.08247    0.56633    0.30162   1.00
H2       1.05472    0.57340    0.25734   1.00
C5       1.11600    0.56144    0.24878   1.00
H2       1.11208    0.54971    0.21871   1.00
H2       1.13930    0.54383    0.26309   1.00
C5       1.12740    0.60470    0.24746   1.00
H2       1.13109    0.61666    0.27740   1.00
H2       1.10478    0.62210    0.23197   1.00
H2       1.15553    0.60829    0.23170   1.00
C5       0.94841    0.57511    0.23895   1.00
C5       1.04894    0.42174    0.13930   1.00
H2       0.93850    0.55170    0.25912   1.00
H2       0.92891    0.57538    0.21288   1.00
H2       1.06586    0.41917    0.16700   1.00
H2       1.06342    0.44461    0.12105   1.00
H2       1.07490    0.39152    0.05945   1.00
H2       0.90508    0.59810    0.30750   1.00
H2       0.88115    0.61231    0.26234   1.00
C2       1.00149    0.50210    0.35395   1.00
C3       0.96679    0.49226    0.33403   1.00
O2       0.93143    0.49281    0.35326   1.00
C3       1.03556    0.50923    0.33174   1.00
H1       1.06282    0.51583    0.34615   1.00
C3a      0.96663    0.49078    0.29287   1.00
H1       0.93933    0.48540    0.27798   1.00
C3b      1.03500    0.50895    0.29078   1.00
C4       1.00035    0.49977    0.27100   1.00
O_3      0.98786    0.56996    0.22833   1.00
C5       0.91981    0.45448    0.36280   1.00
H2       0.91673    0.43606    0.33609   1.00
C5       0.88026    0.45752    0.38334   1.00
H2       0.94132    0.44041    0.38274   1.00
H2       0.85721    0.46135    0.36077   1.00
H2       0.88055    0.48481    0.40101   1.00
C5       0.87119    0.42191    0.40931   1.00
H2       0.87407    0.39471    0.39189   1.00
H2       0.84096    0.42364    0.42109   1.00
H2       0.89119    0.42054    0.43506   1.00
C5       0.94517    0.61421    0.25980   1.00
H2       0.94852    0.63791    0.23782   1.00
H2       0.97015    0.61684    0.28045   1.00
C5       0.90631    0.61830    0.28197   1.00
H2       0.90320    0.64851    0.29334   1.00
