data_IRMOF10_SG202_interpen_Ligand11lp_label_k.

_audit_creation_method             'generated by an auxiliary program of Tobunporous'

_symmetry_space_group_name_H-M     'P 1'
_symmetry_Int_Tables_number        1
_symmetry_cell_setting             triclinic

_cell_length_a                    34.2800
_cell_length_b                    34.2800
_cell_length_c                    34.2800
_cell_angle_alpha                 90.0000
_cell_angle_beta                  90.0000
_cell_angle_gamma                 90.0000

loop_
_atom_site_label
_atom_site_fract_x
_atom_site_fract_y
_atom_site_fract_z
_atom_site_occupancy
O1       0.75000    0.75000    0.75000   1.00
Zn1      0.71720    0.78280    0.78280   1.00
Zn1      0.78280    0.71720    0.78280   1.00
Zn1      0.78280    0.78280    0.71720   1.00
Zn1      0.71720    0.71720    0.71720   1.00
O2       0.72650    0.77350    0.83820   1.00
O2       0.72650    0.83820    0.77350   1.00
O2       0.66180    0.77350    0.77350   1.00
O2       0.77350    0.72650    0.83820   1.00
O2       0.83820    0.72650    0.77350   1.00
O2       0.77350    0.66180    0.77350   1.00
O2       0.77350    0.83820    0.72650   1.00
O2       0.83820    0.77350    0.72650   1.00
O2       0.77350    0.77350    0.66180   1.00
O2       0.66180    0.72650    0.72650   1.00
O2       0.72650    0.66180    0.72650   1.00
O2       0.72650    0.72650    0.66180   1.00
C1       0.75000    0.75000    0.85520   1.00
C1       0.75000    0.85520    0.75000   1.00
C1       0.64480    0.75000    0.75000   1.00
C1       0.85520    0.75000    0.75000   1.00
C1       0.75000    0.64480    0.75000   1.00
C1       0.75000    0.75000    0.64480   1.00
O1       0.25000    0.25000    0.75000   1.00
Zn1      0.21720    0.28280    0.78280   1.00
Zn1      0.28280    0.21720    0.78280   1.00
Zn1      0.28280    0.28280    0.71720   1.00
Zn1      0.21720    0.21720    0.71720   1.00
O2       0.22650    0.27350    0.83820   1.00
O2       0.22650    0.33820    0.77350   1.00
O2       0.16180    0.27350    0.77350   1.00
O2       0.27350    0.22650    0.83820   1.00
O2       0.33820    0.22650    0.77350   1.00
O2       0.27350    0.16180    0.77350   1.00
O2       0.27350    0.33820    0.72650   1.00
O2       0.33820    0.27350    0.72650   1.00
O2       0.27350    0.27350    0.66180   1.00
O2       0.16180    0.22650    0.72650   1.00
O2       0.22650    0.16180    0.72650   1.00
O2       0.22650    0.22650    0.66180   1.00
C1       0.25000    0.25000    0.85520   1.00
C1       0.25000    0.35520    0.75000   1.00
C1       0.14480    0.25000    0.75000   1.00
C1       0.35520    0.25000    0.75000   1.00
C1       0.25000    0.14480    0.75000   1.00
C1       0.25000    0.25000    0.64480   1.00
O1       0.25000    0.75000    0.25000   1.00
Zn1      0.21720    0.78280    0.28280   1.00
Zn1      0.28280    0.71720    0.28280   1.00
Zn1      0.28280    0.78280    0.21720   1.00
Zn1      0.21720    0.71720    0.21720   1.00
O2       0.22650    0.77350    0.33820   1.00
O2       0.22650    0.83820    0.27350   1.00
O2       0.16180    0.77350    0.27350   1.00
O2       0.27350    0.72650    0.33820   1.00
O2       0.33820    0.72650    0.27350   1.00
O2       0.27350    0.66180    0.27350   1.00
O2       0.27350    0.83820    0.22650   1.00
O2       0.33820    0.77350    0.22650   1.00
O2       0.27350    0.77350    0.16180   1.00
O2       0.16180    0.72650    0.22650   1.00
O2       0.22650    0.66180    0.22650   1.00
O2       0.22650    0.72650    0.16180   1.00
C1       0.25000    0.75000    0.35520   1.00
C1       0.25000    0.85520    0.25000   1.00
C1       0.14480    0.75000    0.25000   1.00
C1       0.35520    0.75000    0.25000   1.00
C1       0.25000    0.64480    0.25000   1.00
C1       0.25000    0.75000    0.14480   1.00
O1       0.75000    0.25000    0.25000   1.00
Zn1      0.71720    0.28280    0.28280   1.00
Zn1      0.78280    0.21720    0.28280   1.00
Zn1      0.78280    0.28280    0.21720   1.00
Zn1      0.71720    0.21720    0.21720   1.00
O2       0.72650    0.27350    0.33820   1.00
O2       0.72650    0.33820    0.27350   1.00
O2       0.66180    0.27350    0.27350   1.00
O2       0.77350    0.22650    0.33820   1.00
O2       0.83820    0.22650    0.27350   1.00
O2       0.77350    0.16180    0.27350   1.00
O2       0.77350    0.33820    0.22650   1.00
O2       0.83820    0.27350    0.22650   1.00
O2       0.77350    0.27350    0.16180   1.00
O2       0.66180    0.22650    0.22650   1.00
O2       0.72650    0.16180    0.22650   1.00
O2       0.72650    0.22650    0.16180   1.00
C1       0.75000    0.25000    0.35520   1.00
C1       0.75000    0.35520    0.25000   1.00
C1       0.64480    0.25000    0.25000   1.00
C1       0.85520    0.25000    0.25000   1.00
C1       0.75000    0.14480    0.25000   1.00
C1       0.75000    0.25000    0.14480   1.00
O1       0.25000    0.25000    0.25000   1.00
Zn1      0.28280    0.21720    0.21720   1.00
Zn1      0.21720    0.28280    0.21720   1.00
Zn1      0.21720    0.21720    0.28280   1.00
Zn1      0.28280    0.28280    0.28280   1.00
O2       0.27350    0.22650    0.16180   1.00
O2       0.27350    0.16180    0.22650   1.00
O2       0.33820    0.22650    0.22650   1.00
O2       0.22650    0.27350    0.16180   1.00
O2       0.16180    0.27350    0.22650   1.00
O2       0.22650    0.33820    0.22650   1.00
O2       0.22650    0.16180    0.27350   1.00
O2       0.16180    0.22650    0.27350   1.00
O2       0.22650    0.22650    0.33820   1.00
O2       0.33820    0.27350    0.27350   1.00
O2       0.27350    0.33820    0.27350   1.00
O2       0.27350    0.27350    0.33820   1.00
C1       0.25000    0.25000    0.14480   1.00
C1       0.25000    0.14480    0.25000   1.00
C1       0.35520    0.25000    0.25000   1.00
C1       0.14480    0.25000    0.25000   1.00
C1       0.25000    0.35520    0.25000   1.00
C1       0.25000    0.25000    0.35520   1.00
O1       0.75000    0.75000    0.25000   1.00
Zn1      0.78280    0.71720    0.21720   1.00
Zn1      0.71720    0.78280    0.21720   1.00
Zn1      0.71720    0.71720    0.28280   1.00
Zn1      0.78280    0.78280    0.28280   1.00
O2       0.77350    0.72650    0.16180   1.00
O2       0.77350    0.66180    0.22650   1.00
O2       0.83820    0.72650    0.22650   1.00
O2       0.72650    0.77350    0.16180   1.00
O2       0.66180    0.77350    0.22650   1.00
O2       0.72650    0.83820    0.22650   1.00
O2       0.72650    0.66180    0.27350   1.00
O2       0.66180    0.72650    0.27350   1.00
O2       0.72650    0.72650    0.33820   1.00
O2       0.83820    0.77350    0.27350   1.00
O2       0.77350    0.83820    0.27350   1.00
O2       0.77350    0.77350    0.33820   1.00
C1       0.75000    0.75000    0.14480   1.00
C1       0.75000    0.64480    0.25000   1.00
C1       0.85520    0.75000    0.25000   1.00
C1       0.64480    0.75000    0.25000   1.00
C1       0.75000    0.85520    0.25000   1.00
C1       0.75000    0.75000    0.35520   1.00
O1       0.75000    0.25000    0.75000   1.00
Zn1      0.78280    0.21720    0.71720   1.00
Zn1      0.71720    0.28280    0.71720   1.00
Zn1      0.71720    0.21720    0.78280   1.00
Zn1      0.78280    0.28280    0.78280   1.00
O2       0.77350    0.22650    0.66180   1.00
O2       0.77350    0.16180    0.72650   1.00
O2       0.83820    0.22650    0.72650   1.00
O2       0.72650    0.27350    0.66180   1.00
O2       0.66180    0.27350    0.72650   1.00
O2       0.72650    0.33820    0.72650   1.00
O2       0.72650    0.16180    0.77350   1.00
O2       0.66180    0.22650    0.77350   1.00
O2       0.72650    0.22650    0.83820   1.00
O2       0.83820    0.27350    0.77350   1.00
O2       0.77350    0.33820    0.77350   1.00
O2       0.77350    0.27350    0.83820   1.00
C1       0.75000    0.25000    0.64480   1.00
C1       0.75000    0.14480    0.75000   1.00
C1       0.85520    0.25000    0.75000   1.00
C1       0.64480    0.25000    0.75000   1.00
C1       0.75000    0.35520    0.75000   1.00
C1       0.75000    0.25000    0.85520   1.00
O1       0.25000    0.75000    0.75000   1.00
Zn1      0.28280    0.71720    0.71720   1.00
Zn1      0.21720    0.78280    0.71720   1.00
Zn1      0.21720    0.71720    0.78280   1.00
Zn1      0.28280    0.78280    0.78280   1.00
O2       0.27350    0.72650    0.66180   1.00
O2       0.27350    0.66180    0.72650   1.00
O2       0.33820    0.72650    0.72650   1.00
O2       0.22650    0.77350    0.66180   1.00
O2       0.16180    0.77350    0.72650   1.00
O2       0.22650    0.83820    0.72650   1.00
O2       0.22650    0.66180    0.77350   1.00
O2       0.16180    0.72650    0.77350   1.00
O2       0.22650    0.72650    0.83820   1.00
O2       0.33820    0.77350    0.77350   1.00
O2       0.27350    0.83820    0.77350   1.00
O2       0.27350    0.77350    0.83820   1.00
C1       0.25000    0.75000    0.64480   1.00
C1       0.25000    0.64480    0.75000   1.00
C1       0.35520    0.75000    0.75000   1.00
C1       0.14480    0.75000    0.75000   1.00
C1       0.25000    0.85520    0.75000   1.00
C1       0.25000    0.75000    0.85520   1.00
O1       1.00000    1.00000    1.00000   1.00
Zn1      0.96720    1.03280    1.03280   1.00
Zn1      1.03280    0.96720    1.03280   1.00
Zn1      1.03280    1.03280    0.96720   1.00
Zn1      0.96720    0.96720    0.96720   1.00
O2       0.97650    1.02350    1.08820   1.00
O2       0.97650    1.08820    1.02350   1.00
O2       0.91180    1.02350    1.02350   1.00
O2       1.02350    0.97650    1.08820   1.00
O2       1.08820    0.97650    1.02350   1.00
O2       1.02350    0.91180    1.02350   1.00
O2       1.02350    1.08820    0.97650   1.00
O2       1.08820    1.02350    0.97650   1.00
O2       1.02350    1.02350    0.91180   1.00
O2       0.91180    0.97650    0.97650   1.00
O2       0.97650    0.91180    0.97650   1.00
O2       0.97650    0.97650    0.91180   1.00
C1       1.00000    1.00000    1.10520   1.00
C1       1.00000    1.10520    1.00000   1.00
C1       0.89480    1.00000    1.00000   1.00
C1       1.10520    1.00000    1.00000   1.00
C1       1.00000    0.89480    1.00000   1.00
C1       1.00000    1.00000    0.89480   1.00
O1       0.50000    0.50000    1.00000   1.00
Zn1      0.46720    0.53280    1.03280   1.00
Zn1      0.53280    0.46720    1.03280   1.00
Zn1      0.53280    0.53280    0.96720   1.00
Zn1      0.46720    0.46720    0.96720   1.00
O2       0.47650    0.52350    1.08820   1.00
O2       0.47650    0.58820    1.02350   1.00
O2       0.41180    0.52350    1.02350   1.00
O2       0.52350    0.47650    1.08820   1.00
O2       0.58820    0.47650    1.02350   1.00
O2       0.52350    0.41180    1.02350   1.00
O2       0.52350    0.58820    0.97650   1.00
O2       0.58820    0.52350    0.97650   1.00
O2       0.52350    0.52350    0.91180   1.00
O2       0.41180    0.47650    0.97650   1.00
O2       0.47650    0.41180    0.97650   1.00
O2       0.47650    0.47650    0.91180   1.00
C1       0.50000    0.50000    1.10520   1.00
C1       0.50000    0.60520    1.00000   1.00
C1       0.39480    0.50000    1.00000   1.00
C1       0.60520    0.50000    1.00000   1.00
C1       0.50000    0.39480    1.00000   1.00
C1       0.50000    0.50000    0.89480   1.00
O1       0.50000    1.00000    0.50000   1.00
Zn1      0.46720    1.03280    0.53280   1.00
Zn1      0.53280    0.96720    0.53280   1.00
Zn1      0.53280    1.03280    0.46720   1.00
Zn1      0.46720    0.96720    0.46720   1.00
O2       0.47650    1.02350    0.58820   1.00
O2       0.47650    1.08820    0.52350   1.00
O2       0.41180    1.02350    0.52350   1.00
O2       0.52350    0.97650    0.58820   1.00
O2       0.58820    0.97650    0.52350   1.00
O2       0.52350    0.91180    0.52350   1.00
O2       0.52350    1.08820    0.47650   1.00
O2       0.58820    1.02350    0.47650   1.00
O2       0.52350    1.02350    0.41180   1.00
O2       0.41180    0.97650    0.47650   1.00
O2       0.47650    0.91180    0.47650   1.00
O2       0.47650    0.97650    0.41180   1.00
C1       0.50000    1.00000    0.60520   1.00
C1       0.50000    1.10520    0.50000   1.00
C1       0.39480    1.00000    0.50000   1.00
C1       0.60520    1.00000    0.50000   1.00
C1       0.50000    0.89480    0.50000   1.00
C1       0.50000    1.00000    0.39480   1.00
O1       1.00000    0.50000    0.50000   1.00
Zn1      0.96720    0.53280    0.53280   1.00
Zn1      1.03280    0.46720    0.53280   1.00
Zn1      1.03280    0.53280    0.46720   1.00
Zn1      0.96720    0.46720    0.46720   1.00
O2       0.97650    0.52350    0.58820   1.00
O2       0.97650    0.58820    0.52350   1.00
O2       0.91180    0.52350    0.52350   1.00
O2       1.02350    0.47650    0.58820   1.00
O2       1.08820    0.47650    0.52350   1.00
O2       1.02350    0.41180    0.52350   1.00
O2       1.02350    0.58820    0.47650   1.00
O2       1.08820    0.52350    0.47650   1.00
O2       1.02350    0.52350    0.41180   1.00
O2       0.91180    0.47650    0.47650   1.00
O2       0.97650    0.41180    0.47650   1.00
O2       0.97650    0.47650    0.41180   1.00
C1       1.00000    0.50000    0.60520   1.00
C1       1.00000    0.60520    0.50000   1.00
C1       0.89480    0.50000    0.50000   1.00
C1       1.10520    0.50000    0.50000   1.00
C1       1.00000    0.39480    0.50000   1.00
C1       1.00000    0.50000    0.39480   1.00
O1       0.50000    0.50000    0.50000   1.00
Zn1      0.53280    0.46720    0.46720   1.00
Zn1      0.46720    0.53280    0.46720   1.00
Zn1      0.46720    0.46720    0.53280   1.00
Zn1      0.53280    0.53280    0.53280   1.00
O2       0.52350    0.47650    0.41180   1.00
O2       0.52350    0.41180    0.47650   1.00
O2       0.58820    0.47650    0.47650   1.00
O2       0.47650    0.52350    0.41180   1.00
O2       0.41180    0.52350    0.47650   1.00
O2       0.47650    0.58820    0.47650   1.00
O2       0.47650    0.41180    0.52350   1.00
O2       0.41180    0.47650    0.52350   1.00
O2       0.47650    0.47650    0.58820   1.00
O2       0.58820    0.52350    0.52350   1.00
O2       0.52350    0.58820    0.52350   1.00
O2       0.52350    0.52350    0.58820   1.00
C1       0.50000    0.50000    0.39480   1.00
C1       0.50000    0.39480    0.50000   1.00
C1       0.60520    0.50000    0.50000   1.00
C1       0.39480    0.50000    0.50000   1.00
C1       0.50000    0.60520    0.50000   1.00
C1       0.50000    0.50000    0.60520   1.00
O1       1.00000    1.00000    0.50000   1.00
Zn1      1.03280    0.96720    0.46720   1.00
Zn1      0.96720    1.03280    0.46720   1.00
Zn1      0.96720    0.96720    0.53280   1.00
Zn1      1.03280    1.03280    0.53280   1.00
O2       1.02350    0.97650    0.41180   1.00
O2       1.02350    0.91180    0.47650   1.00
O2       1.08820    0.97650    0.47650   1.00
O2       0.97650    1.02350    0.41180   1.00
O2       0.91180    1.02350    0.47650   1.00
O2       0.97650    1.08820    0.47650   1.00
O2       0.97650    0.91180    0.52350   1.00
O2       0.91180    0.97650    0.52350   1.00
O2       0.97650    0.97650    0.58820   1.00
O2       1.08820    1.02350    0.52350   1.00
O2       1.02350    1.08820    0.52350   1.00
O2       1.02350    1.02350    0.58820   1.00
C1       1.00000    1.00000    0.39480   1.00
C1       1.00000    0.89480    0.50000   1.00
C1       1.10520    1.00000    0.50000   1.00
C1       0.89480    1.00000    0.50000   1.00
C1       1.00000    1.10520    0.50000   1.00
C1       1.00000    1.00000    0.60520   1.00
O1       1.00000    0.50000    1.00000   1.00
Zn1      1.03280    0.46720    0.96720   1.00
Zn1      0.96720    0.53280    0.96720   1.00
Zn1      0.96720    0.46720    1.03280   1.00
Zn1      1.03280    0.53280    1.03280   1.00
O2       1.02350    0.47650    0.91180   1.00
O2       1.02350    0.41180    0.97650   1.00
O2       1.08820    0.47650    0.97650   1.00
O2       0.97650    0.52350    0.91180   1.00
O2       0.91180    0.52350    0.97650   1.00
O2       0.97650    0.58820    0.97650   1.00
O2       0.97650    0.41180    1.02350   1.00
O2       0.91180    0.47650    1.02350   1.00
O2       0.97650    0.47650    1.08820   1.00
O2       1.08820    0.52350    1.02350   1.00
O2       1.02350    0.58820    1.02350   1.00
O2       1.02350    0.52350    1.08820   1.00
C1       1.00000    0.50000    0.89480   1.00
C1       1.00000    0.39480    1.00000   1.00
C1       1.10520    0.50000    1.00000   1.00
C1       0.89480    0.50000    1.00000   1.00
C1       1.00000    0.60520    1.00000   1.00
C1       1.00000    0.50000    1.10520   1.00
O1       0.50000    1.00000    1.00000   1.00
Zn1      0.53280    0.96720    0.96720   1.00
Zn1      0.46720    1.03280    0.96720   1.00
Zn1      0.46720    0.96720    1.03280   1.00
Zn1      0.53280    1.03280    1.03280   1.00
O2       0.52350    0.97650    0.91180   1.00
O2       0.52350    0.91180    0.97650   1.00
O2       0.58820    0.97650    0.97650   1.00
O2       0.47650    1.02350    0.91180   1.00
O2       0.41180    1.02350    0.97650   1.00
O2       0.47650    1.08820    0.97650   1.00
O2       0.47650    0.91180    1.02350   1.00
O2       0.41180    0.97650    1.02350   1.00
O2       0.47650    0.97650    1.08820   1.00
O2       0.58820    1.02350    1.02350   1.00
O2       0.52350    1.08820    1.02350   1.00
O2       0.52350    1.02350    1.08820   1.00
C1       0.50000    1.00000    0.89480   1.00
C1       0.50000    0.89480    1.00000   1.00
C1       0.60520    1.00000    1.00000   1.00
C1       0.39480    1.00000    1.00000   1.00
C1       0.50000    1.10520    1.00000   1.00
C1       0.50000    1.00000    1.10520   1.00
C4       0.75002    0.74980    0.97915   1.00
C4       0.74998    0.75020    1.02085   1.00
C3a      0.77568    0.72515    0.95746   1.00
C3       0.73056    0.72092    1.04232   1.00
C3       0.72443    0.77387    0.95768   1.00
C3a      0.76932    0.78006    1.04254   1.00
C2       0.74992    0.74999    0.89488   1.00
C2       0.74992    0.74999    1.10512   1.00
C3       0.77527    0.72569    0.91595   1.00
C3       0.73066    0.72080    1.08363   1.00
C3       0.72450    0.77401    0.91637   1.00
C3       0.76904    0.77944    1.08405   1.00
C5       0.80432    0.69834    0.97772   1.00
H1       0.71555    0.69777    1.02691   1.00
H1       0.79496    0.70705    0.89979   1.00
H1       0.71561    0.69769    1.09901   1.00
H1       0.70456    0.79307    0.90099   1.00
H1       0.78395    0.80209    1.10021   1.00
C5       0.79107    0.81271    1.02228   1.00
H1       0.70453    0.79298    0.97309   1.00
H2       0.81273    0.82574    1.04256   1.00
H2       0.80810    0.80102    0.99731   1.00
H2       0.82838    0.69060    0.95744   1.00
H2       0.81822    0.71361    1.00269   1.00
N1       0.76412    0.84287    1.00857   1.00
C6       0.74235    0.86642    1.03073   1.00
C6       0.75742    0.85286    0.97154   1.00
C6       0.72107    0.89143    1.00759   1.00
C6       0.73066    0.88282    0.96995   1.00
H3       0.74160    0.86538    1.06197   1.00
H3       0.77090    0.83904    0.94700   1.00
H3       0.70085    0.91351    1.01713   1.00
H3       0.71938    0.89680    0.94425   1.00
N1       0.78498    0.66282    0.99143   1.00
C6       0.78073    0.65155    1.02846   1.00
C6       0.76916    0.63491    0.96927   1.00
C6       0.76153    0.61628    1.03005   1.00
C6       0.75416    0.60570    0.99241   1.00
H3       0.79070    0.66810    1.05300   1.00
H3       0.76819    0.63576    0.93803   1.00
H3       0.75374    0.60009    1.05575   1.00
H3       0.73952    0.57958    0.98287   1.00
C4       0.74980    0.97915    0.75002   1.00
C4       0.75020    1.02085    0.74998   1.00
C3a      0.72515    0.95746    0.77568   1.00
C3       0.72092    1.04232    0.73056   1.00
C3       0.77387    0.95768    0.72443   1.00
C3a      0.78006    1.04254    0.76932   1.00
C2       0.74999    0.89488    0.74992   1.00
C2       0.74999    1.10512    0.74992   1.00
C3       0.72569    0.91595    0.77527   1.00
C3       0.72080    1.08363    0.73066   1.00
C3       0.77401    0.91637    0.72450   1.00
C3       0.77944    1.08405    0.76904   1.00
C5       0.69834    0.97772    0.80432   1.00
H1       0.69777    1.02691    0.71555   1.00
H1       0.70705    0.89979    0.79496   1.00
H1       0.69769    1.09901    0.71561   1.00
H1       0.79307    0.90099    0.70456   1.00
H1       0.80209    1.10021    0.78395   1.00
C5       0.81271    1.02228    0.79107   1.00
H1       0.79298    0.97309    0.70453   1.00
H2       0.82574    1.04256    0.81273   1.00
H2       0.80102    0.99731    0.80810   1.00
H2       0.69060    0.95744    0.82838   1.00
H2       0.71361    1.00269    0.81822   1.00
N1       0.84287    1.00857    0.76412   1.00
C6       0.86642    1.03073    0.74235   1.00
C6       0.85286    0.97154    0.75742   1.00
C6       0.89143    1.00759    0.72107   1.00
C6       0.88282    0.96995    0.73066   1.00
H3       0.86538    1.06197    0.74160   1.00
H3       0.83904    0.94700    0.77090   1.00
H3       0.91351    1.01713    0.70085   1.00
H3       0.89680    0.94425    0.71938   1.00
N1       0.66282    0.99143    0.78498   1.00
C6       0.65155    1.02846    0.78073   1.00
C6       0.63491    0.96927    0.76916   1.00
C6       0.61628    1.03005    0.76153   1.00
C6       0.60570    0.99241    0.75416   1.00
H3       0.66810    1.05300    0.79070   1.00
H3       0.63576    0.93803    0.76819   1.00
H3       0.60009    1.05575    0.75374   1.00
H3       0.57958    0.98287    0.73952   1.00
C4       0.52085    0.75002    0.75020   1.00
C4       0.47915    0.74998    0.74980   1.00
C3a      0.54254    0.77568    0.77485   1.00
C3       0.45768    0.73056    0.77908   1.00
C3       0.54232    0.72443    0.72613   1.00
C3a      0.45746    0.76932    0.71994   1.00
C2       0.60512    0.74992    0.75001   1.00
C2       0.39488    0.74992    0.75001   1.00
C3       0.58405    0.77527    0.77431   1.00
C3       0.41637    0.73066    0.77920   1.00
C3       0.58363    0.72450    0.72599   1.00
C3       0.41595    0.76904    0.72056   1.00
C5       0.52228    0.80432    0.80166   1.00
H1       0.47309    0.71555    0.80223   1.00
H1       0.60021    0.79496    0.79295   1.00
H1       0.40099    0.71561    0.80231   1.00
H1       0.59901    0.70456    0.70693   1.00
H1       0.39979    0.78395    0.69791   1.00
C5       0.47772    0.79107    0.68729   1.00
H1       0.52691    0.70453    0.70702   1.00
H2       0.45744    0.81273    0.67426   1.00
H2       0.50269    0.80810    0.69898   1.00
H2       0.54256    0.82838    0.80940   1.00
H2       0.49731    0.81822    0.78639   1.00
N1       0.49143    0.76412    0.65713   1.00
C6       0.46927    0.74235    0.63358   1.00
C6       0.52846    0.75742    0.64714   1.00
C6       0.49241    0.72107    0.60857   1.00
C6       0.53005    0.73066    0.61718   1.00
H3       0.43803    0.74160    0.63462   1.00
H3       0.55300    0.77090    0.66096   1.00
H3       0.48287    0.70085    0.58649   1.00
H3       0.55575    0.71938    0.60320   1.00
N1       0.50857    0.78498    0.83718   1.00
C6       0.47154    0.78073    0.84845   1.00
C6       0.53073    0.76916    0.86509   1.00
C6       0.46995    0.76153    0.88372   1.00
C6       0.50759    0.75416    0.89430   1.00
H3       0.44700    0.79070    0.83190   1.00
H3       0.56197    0.76819    0.86424   1.00
H3       0.44425    0.75374    0.89991   1.00
H3       0.51713    0.73952    0.92042   1.00
C4       0.97915    0.75002    0.74980   1.00
C4       1.02085    0.74998    0.75020   1.00
C3a      0.95746    0.77568    0.72515   1.00
C3       1.04232    0.73056    0.72092   1.00
C3       0.95768    0.72443    0.77387   1.00
C3a      1.04254    0.76932    0.78006   1.00
C2       0.89488    0.74992    0.74999   1.00
C2       1.10512    0.74992    0.74999   1.00
C3       0.91595    0.77527    0.72569   1.00
C3       1.08363    0.73066    0.72080   1.00
C3       0.91637    0.72450    0.77401   1.00
C3       1.08405    0.76904    0.77944   1.00
C5       0.97772    0.80432    0.69834   1.00
H1       1.02691    0.71555    0.69777   1.00
H1       0.89979    0.79496    0.70705   1.00
H1       1.09901    0.71561    0.69769   1.00
H1       0.90099    0.70456    0.79307   1.00
H1       1.10021    0.78395    0.80209   1.00
C5       1.02228    0.79107    0.81271   1.00
H1       0.97309    0.70453    0.79298   1.00
H2       1.04256    0.81273    0.82574   1.00
H2       0.99731    0.80810    0.80102   1.00
H2       0.95744    0.82838    0.69060   1.00
H2       1.00269    0.81822    0.71361   1.00
N1       1.00857    0.76412    0.84287   1.00
C6       1.03073    0.74235    0.86642   1.00
C6       0.97154    0.75742    0.85286   1.00
C6       1.00759    0.72107    0.89143   1.00
C6       0.96995    0.73066    0.88282   1.00
H3       1.06197    0.74160    0.86538   1.00
H3       0.94700    0.77090    0.83904   1.00
H3       1.01713    0.70085    0.91351   1.00
H3       0.94425    0.71938    0.89680   1.00
N1       0.99143    0.78498    0.66282   1.00
C6       1.02846    0.78073    0.65155   1.00
C6       0.96927    0.76916    0.63491   1.00
C6       1.03005    0.76153    0.61628   1.00
C6       0.99241    0.75416    0.60570   1.00
H3       1.05300    0.79070    0.66810   1.00
H3       0.93803    0.76819    0.63576   1.00
H3       1.05575    0.75374    0.60009   1.00
H3       0.98287    0.73952    0.57958   1.00
C4       0.75020    0.52085    0.75002   1.00
C4       0.74980    0.47915    0.74998   1.00
C3a      0.77485    0.54254    0.77568   1.00
C3       0.77908    0.45768    0.73056   1.00
C3       0.72613    0.54232    0.72443   1.00
C3a      0.71994    0.45746    0.76932   1.00
C2       0.75001    0.60512    0.74992   1.00
C2       0.75001    0.39488    0.74992   1.00
C3       0.77431    0.58405    0.77527   1.00
C3       0.77920    0.41637    0.73066   1.00
C3       0.72599    0.58363    0.72450   1.00
C3       0.72056    0.41595    0.76904   1.00
C5       0.80166    0.52228    0.80432   1.00
H1       0.80223    0.47309    0.71555   1.00
H1       0.79295    0.60021    0.79496   1.00
H1       0.80231    0.40099    0.71561   1.00
H1       0.70693    0.59901    0.70456   1.00
H1       0.69791    0.39979    0.78395   1.00
C5       0.68729    0.47772    0.79107   1.00
H1       0.70702    0.52691    0.70453   1.00
H2       0.67426    0.45744    0.81273   1.00
H2       0.69898    0.50269    0.80810   1.00
H2       0.80940    0.54256    0.82838   1.00
H2       0.78639    0.49731    0.81822   1.00
N1       0.65713    0.49143    0.76412   1.00
C6       0.63358    0.46927    0.74235   1.00
C6       0.64714    0.52846    0.75742   1.00
C6       0.60857    0.49241    0.72107   1.00
C6       0.61718    0.53005    0.73066   1.00
H3       0.63462    0.43803    0.74160   1.00
H3       0.66096    0.55300    0.77090   1.00
H3       0.58649    0.48287    0.70085   1.00
H3       0.60320    0.55575    0.71938   1.00
N1       0.83718    0.50857    0.78498   1.00
C6       0.84845    0.47154    0.78073   1.00
C6       0.86509    0.53073    0.76916   1.00
C6       0.88372    0.46995    0.76153   1.00
C6       0.89430    0.50759    0.75416   1.00
H3       0.83190    0.44700    0.79070   1.00
H3       0.86424    0.56197    0.76819   1.00
H3       0.89991    0.44425    0.75374   1.00
H3       0.92042    0.51713    0.73952   1.00
C4       0.75002    0.75020    0.52085   1.00
C4       0.74998    0.74980    0.47915   1.00
C3a      0.77568    0.77485    0.54254   1.00
C3       0.73056    0.77908    0.45768   1.00
C3       0.72443    0.72613    0.54232   1.00
C3a      0.76932    0.71994    0.45746   1.00
C2       0.74992    0.75001    0.60512   1.00
C2       0.74992    0.75001    0.39488   1.00
C3       0.77527    0.77431    0.58405   1.00
C3       0.73066    0.77920    0.41637   1.00
C3       0.72450    0.72599    0.58363   1.00
C3       0.76904    0.72056    0.41595   1.00
C5       0.80432    0.80166    0.52228   1.00
H1       0.71555    0.80223    0.47309   1.00
H1       0.79496    0.79295    0.60021   1.00
H1       0.71561    0.80231    0.40099   1.00
H1       0.70456    0.70693    0.59901   1.00
H1       0.78395    0.69791    0.39979   1.00
C5       0.79107    0.68729    0.47772   1.00
H1       0.70453    0.70702    0.52691   1.00
H2       0.81273    0.67426    0.45744   1.00
H2       0.80810    0.69898    0.50269   1.00
H2       0.82838    0.80940    0.54256   1.00
H2       0.81822    0.78639    0.49731   1.00
N1       0.76412    0.65713    0.49143   1.00
C6       0.74235    0.63358    0.46927   1.00
C6       0.75742    0.64714    0.52846   1.00
C6       0.72107    0.60857    0.49241   1.00
C6       0.73066    0.61718    0.53005   1.00
H3       0.74160    0.63462    0.43803   1.00
H3       0.77090    0.66096    0.55300   1.00
H3       0.70085    0.58649    0.48287   1.00
H3       0.71938    0.60320    0.55575   1.00
N1       0.78498    0.83718    0.50857   1.00
C6       0.78073    0.84845    0.47154   1.00
C6       0.76916    0.86509    0.53073   1.00
C6       0.76153    0.88372    0.46995   1.00
C6       0.75416    0.89430    0.50759   1.00
H3       0.79070    0.83190    0.44700   1.00
H3       0.76819    0.86424    0.56197   1.00
H3       0.75374    0.89991    0.44425   1.00
H3       0.73952    0.92042    0.51713   1.00
C4       0.25002    0.24980    0.97915   1.00
C4       0.24998    0.25020    1.02085   1.00
C3a      0.27568    0.22515    0.95746   1.00
C3       0.23056    0.22092    1.04232   1.00
C3       0.22443    0.27387    0.95768   1.00
C3a      0.26932    0.28006    1.04254   1.00
C2       0.24992    0.24999    0.89488   1.00
C2       0.24992    0.24999    1.10512   1.00
C3       0.27527    0.22569    0.91595   1.00
C3       0.23066    0.22080    1.08363   1.00
C3       0.22450    0.27401    0.91637   1.00
C3       0.26904    0.27944    1.08405   1.00
C5       0.30432    0.19834    0.97772   1.00
H1       0.21555    0.19777    1.02691   1.00
H1       0.29496    0.20705    0.89979   1.00
H1       0.21561    0.19769    1.09901   1.00
H1       0.20456    0.29307    0.90099   1.00
H1       0.28395    0.30209    1.10021   1.00
C5       0.29107    0.31271    1.02228   1.00
H1       0.20453    0.29298    0.97309   1.00
H2       0.31273    0.32574    1.04256   1.00
H2       0.30810    0.30102    0.99731   1.00
H2       0.32838    0.19060    0.95744   1.00
H2       0.31822    0.21361    1.00269   1.00
N1       0.26412    0.34287    1.00857   1.00
C6       0.24235    0.36642    1.03073   1.00
C6       0.25742    0.35286    0.97154   1.00
C6       0.22107    0.39143    1.00759   1.00
C6       0.23066    0.38282    0.96995   1.00
H3       0.24160    0.36538    1.06197   1.00
H3       0.27090    0.33904    0.94700   1.00
H3       0.20085    0.41351    1.01713   1.00
H3       0.21938    0.39680    0.94425   1.00
N1       0.28498    0.16282    0.99143   1.00
C6       0.28073    0.15155    1.02846   1.00
C6       0.26916    0.13491    0.96927   1.00
C6       0.26153    0.11628    1.03005   1.00
C6       0.25416    0.10570    0.99241   1.00
H3       0.29070    0.16810    1.05300   1.00
H3       0.26819    0.13576    0.93803   1.00
H3       0.25374    0.10009    1.05575   1.00
H3       0.23952    0.07958    0.98287   1.00
C4       0.24980    0.47915    0.75002   1.00
C4       0.25020    0.52085    0.74998   1.00
C3a      0.22515    0.45746    0.77568   1.00
C3       0.22092    0.54232    0.73056   1.00
C3       0.27387    0.45768    0.72443   1.00
C3a      0.28006    0.54254    0.76932   1.00
C2       0.24999    0.39488    0.74992   1.00
C2       0.24999    0.60512    0.74992   1.00
C3       0.22569    0.41595    0.77527   1.00
C3       0.22080    0.58363    0.73066   1.00
C3       0.27401    0.41637    0.72450   1.00
C3       0.27944    0.58405    0.76904   1.00
C5       0.19834    0.47772    0.80432   1.00
H1       0.19777    0.52691    0.71555   1.00
H1       0.20705    0.39979    0.79496   1.00
H1       0.19769    0.59901    0.71561   1.00
H1       0.29307    0.40099    0.70456   1.00
H1       0.30209    0.60021    0.78395   1.00
C5       0.31271    0.52228    0.79107   1.00
H1       0.29298    0.47309    0.70453   1.00
H2       0.32574    0.54256    0.81273   1.00
H2       0.30102    0.49731    0.80810   1.00
H2       0.19060    0.45744    0.82838   1.00
H2       0.21361    0.50269    0.81822   1.00
N1       0.34287    0.50857    0.76412   1.00
C6       0.36642    0.53073    0.74235   1.00
C6       0.35286    0.47154    0.75742   1.00
C6       0.39143    0.50759    0.72107   1.00
C6       0.38282    0.46995    0.73066   1.00
H3       0.36538    0.56197    0.74160   1.00
H3       0.33904    0.44700    0.77090   1.00
H3       0.41351    0.51713    0.70085   1.00
H3       0.39680    0.44425    0.71938   1.00
N1       0.16282    0.49143    0.78498   1.00
C6       0.15155    0.52846    0.78073   1.00
C6       0.13491    0.46927    0.76916   1.00
C6       0.11628    0.53005    0.76153   1.00
C6       0.10570    0.49241    0.75416   1.00
H3       0.16810    0.55300    0.79070   1.00
H3       0.13576    0.43803    0.76819   1.00
H3       0.10009    0.55575    0.75374   1.00
H3       0.07958    0.48287    0.73952   1.00
C4       0.02085    0.25002    0.75020   1.00
C4       -0.02085   0.24998    0.74980   1.00
C3a      0.04254    0.27568    0.77485   1.00
C3       -0.04232   0.23056    0.77908   1.00
C3       0.04232    0.22443    0.72613   1.00
C3a      -0.04254   0.26932    0.71994   1.00
C2       0.10512    0.24992    0.75001   1.00
C2       -0.10512   0.24992    0.75001   1.00
C3       0.08405    0.27527    0.77431   1.00
C3       -0.08363   0.23066    0.77920   1.00
C3       0.08363    0.22450    0.72599   1.00
C3       -0.08405   0.26904    0.72056   1.00
C5       0.02228    0.30432    0.80166   1.00
H1       -0.02691   0.21555    0.80223   1.00
H1       0.10021    0.29496    0.79295   1.00
H1       -0.09901   0.21561    0.80231   1.00
H1       0.09901    0.20456    0.70693   1.00
H1       -0.10021   0.28395    0.69791   1.00
C5       -0.02228   0.29107    0.68729   1.00
H1       0.02691    0.20453    0.70702   1.00
H2       -0.04256   0.31273    0.67426   1.00
H2       0.00269    0.30810    0.69898   1.00
H2       0.04256    0.32838    0.80940   1.00
H2       -0.00269   0.31822    0.78639   1.00
N1       -0.00857   0.26412    0.65713   1.00
C6       -0.03073   0.24235    0.63358   1.00
C6       0.02846    0.25742    0.64714   1.00
C6       -0.00759   0.22107    0.60857   1.00
C6       0.03005    0.23066    0.61718   1.00
H3       -0.06197   0.24160    0.63462   1.00
H3       0.05300    0.27090    0.66096   1.00
H3       -0.01713   0.20085    0.58649   1.00
H3       0.05575    0.21938    0.60320   1.00
N1       0.00857    0.28498    0.83718   1.00
C6       -0.02846   0.28073    0.84845   1.00
C6       0.03073    0.26916    0.86509   1.00
C6       -0.03005   0.26153    0.88372   1.00
C6       0.00759    0.25416    0.89430   1.00
H3       -0.05300   0.29070    0.83190   1.00
H3       0.06197    0.26819    0.86424   1.00
H3       -0.05575   0.25374    0.89991   1.00
H3       0.01713    0.23952    0.92042   1.00
C4       0.47915    0.25002    0.74980   1.00
C4       0.52085    0.24998    0.75020   1.00
C3a      0.45746    0.27568    0.72515   1.00
C3       0.54232    0.23056    0.72092   1.00
C3       0.45768    0.22443    0.77387   1.00
C3a      0.54254    0.26932    0.78006   1.00
C2       0.39488    0.24992    0.74999   1.00
C2       0.60512    0.24992    0.74999   1.00
C3       0.41595    0.27527    0.72569   1.00
C3       0.58363    0.23066    0.72080   1.00
C3       0.41637    0.22450    0.77401   1.00
C3       0.58405    0.26904    0.77944   1.00
C5       0.47772    0.30432    0.69834   1.00
H1       0.52691    0.21555    0.69777   1.00
H1       0.39979    0.29496    0.70705   1.00
H1       0.59901    0.21561    0.69769   1.00
H1       0.40099    0.20456    0.79307   1.00
H1       0.60021    0.28395    0.80209   1.00
C5       0.52228    0.29107    0.81271   1.00
H1       0.47309    0.20453    0.79298   1.00
H2       0.54256    0.31273    0.82574   1.00
H2       0.49731    0.30810    0.80102   1.00
H2       0.45744    0.32838    0.69060   1.00
H2       0.50269    0.31822    0.71361   1.00
N1       0.50857    0.26412    0.84287   1.00
C6       0.53073    0.24235    0.86642   1.00
C6       0.47154    0.25742    0.85286   1.00
C6       0.50759    0.22107    0.89143   1.00
C6       0.46995    0.23066    0.88282   1.00
H3       0.56197    0.24160    0.86538   1.00
H3       0.44700    0.27090    0.83904   1.00
H3       0.51713    0.20085    0.91351   1.00
H3       0.44425    0.21938    0.89680   1.00
N1       0.49143    0.28498    0.66282   1.00
C6       0.52846    0.28073    0.65155   1.00
C6       0.46927    0.26916    0.63491   1.00
C6       0.53005    0.26153    0.61628   1.00
C6       0.49241    0.25416    0.60570   1.00
H3       0.55300    0.29070    0.66810   1.00
H3       0.43803    0.26819    0.63576   1.00
H3       0.55575    0.25374    0.60009   1.00
H3       0.48287    0.23952    0.57958   1.00
C4       0.25020    0.02085    0.75002   1.00
C4       0.24980    -0.02085   0.74998   1.00
C3a      0.27485    0.04254    0.77568   1.00
C3       0.27908    -0.04232   0.73056   1.00
C3       0.22613    0.04232    0.72443   1.00
C3a      0.21994    -0.04254   0.76932   1.00
C2       0.25001    0.10512    0.74992   1.00
C2       0.25001    -0.10512   0.74992   1.00
C3       0.27431    0.08405    0.77527   1.00
C3       0.27920    -0.08363   0.73066   1.00
C3       0.22599    0.08363    0.72450   1.00
C3       0.22056    -0.08405   0.76904   1.00
C5       0.30166    0.02228    0.80432   1.00
H1       0.30223    -0.02691   0.71555   1.00
H1       0.29295    0.10021    0.79496   1.00
H1       0.30231    -0.09901   0.71561   1.00
H1       0.20693    0.09901    0.70456   1.00
H1       0.19791    -0.10021   0.78395   1.00
C5       0.18729    -0.02228   0.79107   1.00
H1       0.20702    0.02691    0.70453   1.00
H2       0.17426    -0.04256   0.81273   1.00
H2       0.19898    0.00269    0.80810   1.00
H2       0.30940    0.04256    0.82838   1.00
H2       0.28639    -0.00269   0.81822   1.00
N1       0.15713    -0.00857   0.76412   1.00
C6       0.13358    -0.03073   0.74235   1.00
C6       0.14714    0.02846    0.75742   1.00
C6       0.10857    -0.00759   0.72107   1.00
C6       0.11718    0.03005    0.73066   1.00
H3       0.13462    -0.06197   0.74160   1.00
H3       0.16096    0.05300    0.77090   1.00
H3       0.08649    -0.01713   0.70085   1.00
H3       0.10320    0.05575    0.71938   1.00
N1       0.33718    0.00857    0.78498   1.00
C6       0.34845    -0.02846   0.78073   1.00
C6       0.36509    0.03073    0.76916   1.00
C6       0.38372    -0.03005   0.76153   1.00
C6       0.39430    0.00759    0.75416   1.00
H3       0.33190    -0.05300   0.79070   1.00
H3       0.36424    0.06197    0.76819   1.00
H3       0.39991    -0.05575   0.75374   1.00
H3       0.42042    0.01713    0.73952   1.00
C4       0.25002    0.25020    0.52085   1.00
C4       0.24998    0.24980    0.47915   1.00
C3a      0.27568    0.27485    0.54254   1.00
C3       0.23056    0.27908    0.45768   1.00
C3       0.22443    0.22613    0.54232   1.00
C3a      0.26932    0.21994    0.45746   1.00
C2       0.24992    0.25001    0.60512   1.00
C2       0.24992    0.25001    0.39488   1.00
C3       0.27527    0.27431    0.58405   1.00
C3       0.23066    0.27920    0.41637   1.00
C3       0.22450    0.22599    0.58363   1.00
C3       0.26904    0.22056    0.41595   1.00
C5       0.30432    0.30166    0.52228   1.00
H1       0.21555    0.30223    0.47309   1.00
H1       0.29496    0.29295    0.60021   1.00
H1       0.21561    0.30231    0.40099   1.00
H1       0.20456    0.20693    0.59901   1.00
H1       0.28395    0.19791    0.39979   1.00
C5       0.29107    0.18729    0.47772   1.00
H1       0.20453    0.20702    0.52691   1.00
H2       0.31273    0.17426    0.45744   1.00
H2       0.30810    0.19898    0.50269   1.00
H2       0.32838    0.30940    0.54256   1.00
H2       0.31822    0.28639    0.49731   1.00
N1       0.26412    0.15713    0.49143   1.00
C6       0.24235    0.13358    0.46927   1.00
C6       0.25742    0.14714    0.52846   1.00
C6       0.22107    0.10857    0.49241   1.00
C6       0.23066    0.11718    0.53005   1.00
H3       0.24160    0.13462    0.43803   1.00
H3       0.27090    0.16096    0.55300   1.00
H3       0.20085    0.08649    0.48287   1.00
H3       0.21938    0.10320    0.55575   1.00
N1       0.28498    0.33718    0.50857   1.00
C6       0.28073    0.34845    0.47154   1.00
C6       0.26916    0.36509    0.53073   1.00
C6       0.26153    0.38372    0.46995   1.00
C6       0.25416    0.39430    0.50759   1.00
H3       0.29070    0.33190    0.44700   1.00
H3       0.26819    0.36424    0.56197   1.00
H3       0.25374    0.39991    0.44425   1.00
H3       0.23952    0.42042    0.51713   1.00
C4       0.25002    0.74980    0.47915   1.00
C4       0.24998    0.75020    0.52085   1.00
C3a      0.27568    0.72515    0.45746   1.00
C3       0.23056    0.72092    0.54232   1.00
C3       0.22443    0.77387    0.45768   1.00
C3a      0.26932    0.78006    0.54254   1.00
C2       0.24992    0.74999    0.39488   1.00
C2       0.24992    0.74999    0.60512   1.00
C3       0.27527    0.72569    0.41595   1.00
C3       0.23066    0.72080    0.58363   1.00
C3       0.22450    0.77401    0.41637   1.00
C3       0.26904    0.77944    0.58405   1.00
C5       0.30432    0.69834    0.47772   1.00
H1       0.21555    0.69777    0.52691   1.00
H1       0.29496    0.70705    0.39979   1.00
H1       0.21561    0.69769    0.59901   1.00
H1       0.20456    0.79307    0.40099   1.00
H1       0.28395    0.80209    0.60021   1.00
C5       0.29107    0.81271    0.52228   1.00
H1       0.20453    0.79298    0.47309   1.00
H2       0.31273    0.82574    0.54256   1.00
H2       0.30810    0.80102    0.49731   1.00
H2       0.32838    0.69060    0.45744   1.00
H2       0.31822    0.71361    0.50269   1.00
N1       0.26412    0.84287    0.50857   1.00
C6       0.24235    0.86642    0.53073   1.00
C6       0.25742    0.85286    0.47154   1.00
C6       0.22107    0.89143    0.50759   1.00
C6       0.23066    0.88282    0.46995   1.00
H3       0.24160    0.86538    0.56197   1.00
H3       0.27090    0.83904    0.44700   1.00
H3       0.20085    0.91351    0.51713   1.00
H3       0.21938    0.89680    0.44425   1.00
N1       0.28498    0.66282    0.49143   1.00
C6       0.28073    0.65155    0.52846   1.00
C6       0.26916    0.63491    0.46927   1.00
C6       0.26153    0.61628    0.53005   1.00
C6       0.25416    0.60570    0.49241   1.00
H3       0.29070    0.66810    0.55300   1.00
H3       0.26819    0.63576    0.43803   1.00
H3       0.25374    0.60009    0.55575   1.00
H3       0.23952    0.57958    0.48287   1.00
C4       0.24980    0.97915    0.25002   1.00
C4       0.25020    1.02085    0.24998   1.00
C3a      0.22515    0.95746    0.27568   1.00
C3       0.22092    1.04232    0.23056   1.00
C3       0.27387    0.95768    0.22443   1.00
C3a      0.28006    1.04254    0.26932   1.00
C2       0.24999    0.89488    0.24992   1.00
C2       0.24999    1.10512    0.24992   1.00
C3       0.22569    0.91595    0.27527   1.00
C3       0.22080    1.08363    0.23066   1.00
C3       0.27401    0.91637    0.22450   1.00
C3       0.27944    1.08405    0.26904   1.00
C5       0.19834    0.97772    0.30432   1.00
H1       0.19777    1.02691    0.21555   1.00
H1       0.20705    0.89979    0.29496   1.00
H1       0.19769    1.09901    0.21561   1.00
H1       0.29307    0.90099    0.20456   1.00
H1       0.30209    1.10021    0.28395   1.00
C5       0.31271    1.02228    0.29107   1.00
H1       0.29298    0.97309    0.20453   1.00
H2       0.32574    1.04256    0.31273   1.00
H2       0.30102    0.99731    0.30810   1.00
H2       0.19060    0.95744    0.32838   1.00
H2       0.21361    1.00269    0.31822   1.00
N1       0.34287    1.00857    0.26412   1.00
C6       0.36642    1.03073    0.24235   1.00
C6       0.35286    0.97154    0.25742   1.00
C6       0.39143    1.00759    0.22107   1.00
C6       0.38282    0.96995    0.23066   1.00
H3       0.36538    1.06197    0.24160   1.00
H3       0.33904    0.94700    0.27090   1.00
H3       0.41351    1.01713    0.20085   1.00
H3       0.39680    0.94425    0.21938   1.00
N1       0.16282    0.99143    0.28498   1.00
C6       0.15155    1.02846    0.28073   1.00
C6       0.13491    0.96927    0.26916   1.00
C6       0.11628    1.03005    0.26153   1.00
C6       0.10570    0.99241    0.25416   1.00
H3       0.16810    1.05300    0.29070   1.00
H3       0.13576    0.93803    0.26819   1.00
H3       0.10009    1.05575    0.25374   1.00
H3       0.07958    0.98287    0.23952   1.00
C4       0.02085    0.75002    0.25020   1.00
C4       -0.02085   0.74998    0.24980   1.00
C3a      0.04254    0.77568    0.27485   1.00
C3       -0.04232   0.73056    0.27908   1.00
C3       0.04232    0.72443    0.22613   1.00
C3a      -0.04254   0.76932    0.21994   1.00
C2       0.10512    0.74992    0.25001   1.00
C2       -0.10512   0.74992    0.25001   1.00
C3       0.08405    0.77527    0.27431   1.00
C3       -0.08363   0.73066    0.27920   1.00
C3       0.08363    0.72450    0.22599   1.00
C3       -0.08405   0.76904    0.22056   1.00
C5       0.02228    0.80432    0.30166   1.00
H1       -0.02691   0.71555    0.30223   1.00
H1       0.10021    0.79496    0.29295   1.00
H1       -0.09901   0.71561    0.30231   1.00
H1       0.09901    0.70456    0.20693   1.00
H1       -0.10021   0.78395    0.19791   1.00
C5       -0.02228   0.79107    0.18729   1.00
H1       0.02691    0.70453    0.20702   1.00
H2       -0.04256   0.81273    0.17426   1.00
H2       0.00269    0.80810    0.19898   1.00
H2       0.04256    0.82838    0.30940   1.00
H2       -0.00269   0.81822    0.28639   1.00
N1       -0.00857   0.76412    0.15713   1.00
C6       -0.03073   0.74235    0.13358   1.00
C6       0.02846    0.75742    0.14714   1.00
C6       -0.00759   0.72107    0.10857   1.00
C6       0.03005    0.73066    0.11718   1.00
H3       -0.06197   0.74160    0.13462   1.00
H3       0.05300    0.77090    0.16096   1.00
H3       -0.01713   0.70085    0.08649   1.00
H3       0.05575    0.71938    0.10320   1.00
N1       0.00857    0.78498    0.33718   1.00
C6       -0.02846   0.78073    0.34845   1.00
C6       0.03073    0.76916    0.36509   1.00
C6       -0.03005   0.76153    0.38372   1.00
C6       0.00759    0.75416    0.39430   1.00
H3       -0.05300   0.79070    0.33190   1.00
H3       0.06197    0.76819    0.36424   1.00
H3       -0.05575   0.75374    0.39991   1.00
H3       0.01713    0.73952    0.42042   1.00
C4       0.47915    0.75002    0.24980   1.00
C4       0.52085    0.74998    0.25020   1.00
C3a      0.45746    0.77568    0.22515   1.00
C3       0.54232    0.73056    0.22092   1.00
C3       0.45768    0.72443    0.27387   1.00
C3a      0.54254    0.76932    0.28006   1.00
C2       0.39488    0.74992    0.24999   1.00
C2       0.60512    0.74992    0.24999   1.00
C3       0.41595    0.77527    0.22569   1.00
C3       0.58363    0.73066    0.22080   1.00
C3       0.41637    0.72450    0.27401   1.00
C3       0.58405    0.76904    0.27944   1.00
C5       0.47772    0.80432    0.19834   1.00
H1       0.52691    0.71555    0.19777   1.00
H1       0.39979    0.79496    0.20705   1.00
H1       0.59901    0.71561    0.19769   1.00
H1       0.40099    0.70456    0.29307   1.00
H1       0.60021    0.78395    0.30209   1.00
C5       0.52228    0.79107    0.31271   1.00
H1       0.47309    0.70453    0.29298   1.00
H2       0.54256    0.81273    0.32574   1.00
H2       0.49731    0.80810    0.30102   1.00
H2       0.45744    0.82838    0.19060   1.00
H2       0.50269    0.81822    0.21361   1.00
N1       0.50857    0.76412    0.34287   1.00
C6       0.53073    0.74235    0.36642   1.00
C6       0.47154    0.75742    0.35286   1.00
C6       0.50759    0.72107    0.39143   1.00
C6       0.46995    0.73066    0.38282   1.00
H3       0.56197    0.74160    0.36538   1.00
H3       0.44700    0.77090    0.33904   1.00
H3       0.51713    0.70085    0.41351   1.00
H3       0.44425    0.71938    0.39680   1.00
N1       0.49143    0.78498    0.16282   1.00
C6       0.52846    0.78073    0.15155   1.00
C6       0.46927    0.76916    0.13491   1.00
C6       0.53005    0.76153    0.11628   1.00
C6       0.49241    0.75416    0.10570   1.00
H3       0.55300    0.79070    0.16810   1.00
H3       0.43803    0.76819    0.13576   1.00
H3       0.55575    0.75374    0.10009   1.00
H3       0.48287    0.73952    0.07958   1.00
C4       0.25020    0.52085    0.25002   1.00
C4       0.24980    0.47915    0.24998   1.00
C3a      0.27485    0.54254    0.27568   1.00
C3       0.27908    0.45768    0.23056   1.00
C3       0.22613    0.54232    0.22443   1.00
C3a      0.21994    0.45746    0.26932   1.00
C2       0.25001    0.60512    0.24992   1.00
C2       0.25001    0.39488    0.24992   1.00
C3       0.27431    0.58405    0.27527   1.00
C3       0.27920    0.41637    0.23066   1.00
C3       0.22599    0.58363    0.22450   1.00
C3       0.22056    0.41595    0.26904   1.00
C5       0.30166    0.52228    0.30432   1.00
H1       0.30223    0.47309    0.21555   1.00
H1       0.29295    0.60021    0.29496   1.00
H1       0.30231    0.40099    0.21561   1.00
H1       0.20693    0.59901    0.20456   1.00
H1       0.19791    0.39979    0.28395   1.00
C5       0.18729    0.47772    0.29107   1.00
H1       0.20702    0.52691    0.20453   1.00
H2       0.17426    0.45744    0.31273   1.00
H2       0.19898    0.50269    0.30810   1.00
H2       0.30940    0.54256    0.32838   1.00
H2       0.28639    0.49731    0.31822   1.00
N1       0.15713    0.49143    0.26412   1.00
C6       0.13358    0.46927    0.24235   1.00
C6       0.14714    0.52846    0.25742   1.00
C6       0.10857    0.49241    0.22107   1.00
C6       0.11718    0.53005    0.23066   1.00
H3       0.13462    0.43803    0.24160   1.00
H3       0.16096    0.55300    0.27090   1.00
H3       0.08649    0.48287    0.20085   1.00
H3       0.10320    0.55575    0.21938   1.00
N1       0.33718    0.50857    0.28498   1.00
C6       0.34845    0.47154    0.28073   1.00
C6       0.36509    0.53073    0.26916   1.00
C6       0.38372    0.46995    0.26153   1.00
C6       0.39430    0.50759    0.25416   1.00
H3       0.33190    0.44700    0.29070   1.00
H3       0.36424    0.56197    0.26819   1.00
H3       0.39991    0.44425    0.25374   1.00
H3       0.42042    0.51713    0.23952   1.00
C4       0.25002    0.75020    0.02085   1.00
C4       0.24998    0.74980    -0.02085   1.00
C3a      0.27568    0.77485    0.04254   1.00
C3       0.23056    0.77908    -0.04232   1.00
C3       0.22443    0.72613    0.04232   1.00
C3a      0.26932    0.71994    -0.04254   1.00
C2       0.24992    0.75001    0.10512   1.00
C2       0.24992    0.75001    -0.10512   1.00
C3       0.27527    0.77431    0.08405   1.00
C3       0.23066    0.77920    -0.08363   1.00
C3       0.22450    0.72599    0.08363   1.00
C3       0.26904    0.72056    -0.08405   1.00
C5       0.30432    0.80166    0.02228   1.00
H1       0.21555    0.80223    -0.02691   1.00
H1       0.29496    0.79295    0.10021   1.00
H1       0.21561    0.80231    -0.09901   1.00
H1       0.20456    0.70693    0.09901   1.00
H1       0.28395    0.69791    -0.10021   1.00
C5       0.29107    0.68729    -0.02228   1.00
H1       0.20453    0.70702    0.02691   1.00
H2       0.31273    0.67426    -0.04256   1.00
H2       0.30810    0.69898    0.00269   1.00
H2       0.32838    0.80940    0.04256   1.00
H2       0.31822    0.78639    -0.00269   1.00
N1       0.26412    0.65713    -0.00857   1.00
C6       0.24235    0.63358    -0.03073   1.00
C6       0.25742    0.64714    0.02846   1.00
C6       0.22107    0.60857    -0.00759   1.00
C6       0.23066    0.61718    0.03005   1.00
H3       0.24160    0.63462    -0.06197   1.00
H3       0.27090    0.66096    0.05300   1.00
H3       0.20085    0.58649    -0.01713   1.00
H3       0.21938    0.60320    0.05575   1.00
N1       0.28498    0.83718    0.00857   1.00
C6       0.28073    0.84845    -0.02846   1.00
C6       0.26916    0.86509    0.03073   1.00
C6       0.26153    0.88372    -0.03005   1.00
C6       0.25416    0.89430    0.00759   1.00
H3       0.29070    0.83190    -0.05300   1.00
H3       0.26819    0.86424    0.06197   1.00
H3       0.25374    0.89991    -0.05575   1.00
H3       0.23952    0.92042    0.01713   1.00
C4       0.75002    0.24980    0.47915   1.00
C4       0.74998    0.25020    0.52085   1.00
C3a      0.77568    0.22515    0.45746   1.00
C3       0.73056    0.22092    0.54232   1.00
C3       0.72443    0.27387    0.45768   1.00
C3a      0.76932    0.28006    0.54254   1.00
C2       0.74992    0.24999    0.39488   1.00
C2       0.74992    0.24999    0.60512   1.00
C3       0.77527    0.22569    0.41595   1.00
C3       0.73066    0.22080    0.58363   1.00
C3       0.72450    0.27401    0.41637   1.00
C3       0.76904    0.27944    0.58405   1.00
C5       0.80432    0.19834    0.47772   1.00
H1       0.71555    0.19777    0.52691   1.00
H1       0.79496    0.20705    0.39979   1.00
H1       0.71561    0.19769    0.59901   1.00
H1       0.70456    0.29307    0.40099   1.00
H1       0.78395    0.30209    0.60021   1.00
C5       0.79107    0.31271    0.52228   1.00
H1       0.70453    0.29298    0.47309   1.00
H2       0.81273    0.32574    0.54256   1.00
H2       0.80810    0.30102    0.49731   1.00
H2       0.82838    0.19060    0.45744   1.00
H2       0.81822    0.21361    0.50269   1.00
N1       0.76412    0.34287    0.50857   1.00
C6       0.74235    0.36642    0.53073   1.00
C6       0.75742    0.35286    0.47154   1.00
C6       0.72107    0.39143    0.50759   1.00
C6       0.73066    0.38282    0.46995   1.00
H3       0.74160    0.36538    0.56197   1.00
H3       0.77090    0.33904    0.44700   1.00
H3       0.70085    0.41351    0.51713   1.00
H3       0.71938    0.39680    0.44425   1.00
N1       0.78498    0.16282    0.49143   1.00
C6       0.78073    0.15155    0.52846   1.00
C6       0.76916    0.13491    0.46927   1.00
C6       0.76153    0.11628    0.53005   1.00
C6       0.75416    0.10570    0.49241   1.00
H3       0.79070    0.16810    0.55300   1.00
H3       0.76819    0.13576    0.43803   1.00
H3       0.75374    0.10009    0.55575   1.00
H3       0.73952    0.07958    0.48287   1.00
C4       0.74980    0.47915    0.25002   1.00
C4       0.75020    0.52085    0.24998   1.00
C3a      0.72515    0.45746    0.27568   1.00
C3       0.72092    0.54232    0.23056   1.00
C3       0.77387    0.45768    0.22443   1.00
C3a      0.78006    0.54254    0.26932   1.00
C2       0.74999    0.39488    0.24992   1.00
C2       0.74999    0.60512    0.24992   1.00
C3       0.72569    0.41595    0.27527   1.00
C3       0.72080    0.58363    0.23066   1.00
C3       0.77401    0.41637    0.22450   1.00
C3       0.77944    0.58405    0.26904   1.00
C5       0.69834    0.47772    0.30432   1.00
H1       0.69777    0.52691    0.21555   1.00
H1       0.70705    0.39979    0.29496   1.00
H1       0.69769    0.59901    0.21561   1.00
H1       0.79307    0.40099    0.20456   1.00
H1       0.80209    0.60021    0.28395   1.00
C5       0.81271    0.52228    0.29107   1.00
H1       0.79298    0.47309    0.20453   1.00
H2       0.82574    0.54256    0.31273   1.00
H2       0.80102    0.49731    0.30810   1.00
H2       0.69060    0.45744    0.32838   1.00
H2       0.71361    0.50269    0.31822   1.00
N1       0.84287    0.50857    0.26412   1.00
C6       0.86642    0.53073    0.24235   1.00
C6       0.85286    0.47154    0.25742   1.00
C6       0.89143    0.50759    0.22107   1.00
C6       0.88282    0.46995    0.23066   1.00
H3       0.86538    0.56197    0.24160   1.00
H3       0.83904    0.44700    0.27090   1.00
H3       0.91351    0.51713    0.20085   1.00
H3       0.89680    0.44425    0.21938   1.00
N1       0.66282    0.49143    0.28498   1.00
C6       0.65155    0.52846    0.28073   1.00
C6       0.63491    0.46927    0.26916   1.00
C6       0.61628    0.53005    0.26153   1.00
C6       0.60570    0.49241    0.25416   1.00
H3       0.66810    0.55300    0.29070   1.00
H3       0.63576    0.43803    0.26819   1.00
H3       0.60009    0.55575    0.25374   1.00
H3       0.57958    0.48287    0.23952   1.00
C4       0.52085    0.25002    0.25020   1.00
C4       0.47915    0.24998    0.24980   1.00
C3a      0.54254    0.27568    0.27485   1.00
C3       0.45768    0.23056    0.27908   1.00
C3       0.54232    0.22443    0.22613   1.00
C3a      0.45746    0.26932    0.21994   1.00
C2       0.60512    0.24992    0.25001   1.00
C2       0.39488    0.24992    0.25001   1.00
C3       0.58405    0.27527    0.27431   1.00
C3       0.41637    0.23066    0.27920   1.00
C3       0.58363    0.22450    0.22599   1.00
C3       0.41595    0.26904    0.22056   1.00
C5       0.52228    0.30432    0.30166   1.00
H1       0.47309    0.21555    0.30223   1.00
H1       0.60021    0.29496    0.29295   1.00
H1       0.40099    0.21561    0.30231   1.00
H1       0.59901    0.20456    0.20693   1.00
H1       0.39979    0.28395    0.19791   1.00
C5       0.47772    0.29107    0.18729   1.00
H1       0.52691    0.20453    0.20702   1.00
H2       0.45744    0.31273    0.17426   1.00
H2       0.50269    0.30810    0.19898   1.00
H2       0.54256    0.32838    0.30940   1.00
H2       0.49731    0.31822    0.28639   1.00
N1       0.49143    0.26412    0.15713   1.00
C6       0.46927    0.24235    0.13358   1.00
C6       0.52846    0.25742    0.14714   1.00
C6       0.49241    0.22107    0.10857   1.00
C6       0.53005    0.23066    0.11718   1.00
H3       0.43803    0.24160    0.13462   1.00
H3       0.55300    0.27090    0.16096   1.00
H3       0.48287    0.20085    0.08649   1.00
H3       0.55575    0.21938    0.10320   1.00
N1       0.50857    0.28498    0.33718   1.00
C6       0.47154    0.28073    0.34845   1.00
C6       0.53073    0.26916    0.36509   1.00
C6       0.46995    0.26153    0.38372   1.00
C6       0.50759    0.25416    0.39430   1.00
H3       0.44700    0.29070    0.33190   1.00
H3       0.56197    0.26819    0.36424   1.00
H3       0.44425    0.25374    0.39991   1.00
H3       0.51713    0.23952    0.42042   1.00
C4       0.97915    0.25002    0.24980   1.00
C4       1.02085    0.24998    0.25020   1.00
C3a      0.95746    0.27568    0.22515   1.00
C3       1.04232    0.23056    0.22092   1.00
C3       0.95768    0.22443    0.27387   1.00
C3a      1.04254    0.26932    0.28006   1.00
C2       0.89488    0.24992    0.24999   1.00
C2       1.10512    0.24992    0.24999   1.00
C3       0.91595    0.27527    0.22569   1.00
C3       1.08363    0.23066    0.22080   1.00
C3       0.91637    0.22450    0.27401   1.00
C3       1.08405    0.26904    0.27944   1.00
C5       0.97772    0.30432    0.19834   1.00
H1       1.02691    0.21555    0.19777   1.00
H1       0.89979    0.29496    0.20705   1.00
H1       1.09901    0.21561    0.19769   1.00
H1       0.90099    0.20456    0.29307   1.00
H1       1.10021    0.28395    0.30209   1.00
C5       1.02228    0.29107    0.31271   1.00
H1       0.97309    0.20453    0.29298   1.00
H2       1.04256    0.31273    0.32574   1.00
H2       0.99731    0.30810    0.30102   1.00
H2       0.95744    0.32838    0.19060   1.00
H2       1.00269    0.31822    0.21361   1.00
N1       1.00857    0.26412    0.34287   1.00
C6       1.03073    0.24235    0.36642   1.00
C6       0.97154    0.25742    0.35286   1.00
C6       1.00759    0.22107    0.39143   1.00
C6       0.96995    0.23066    0.38282   1.00
H3       1.06197    0.24160    0.36538   1.00
H3       0.94700    0.27090    0.33904   1.00
H3       1.01713    0.20085    0.41351   1.00
H3       0.94425    0.21938    0.39680   1.00
N1       0.99143    0.28498    0.16282   1.00
C6       1.02846    0.28073    0.15155   1.00
C6       0.96927    0.26916    0.13491   1.00
C6       1.03005    0.26153    0.11628   1.00
C6       0.99241    0.25416    0.10570   1.00
H3       1.05300    0.29070    0.16810   1.00
H3       0.93803    0.26819    0.13576   1.00
H3       1.05575    0.25374    0.10009   1.00
H3       0.98287    0.23952    0.07958   1.00
C4       0.75020    0.02085    0.25002   1.00
C4       0.74980    -0.02085   0.24998   1.00
C3a      0.77485    0.04254    0.27568   1.00
C3       0.77908    -0.04232   0.23056   1.00
C3       0.72613    0.04232    0.22443   1.00
C3a      0.71994    -0.04254   0.26932   1.00
C2       0.75001    0.10512    0.24992   1.00
C2       0.75001    -0.10512   0.24992   1.00
C3       0.77431    0.08405    0.27527   1.00
C3       0.77920    -0.08363   0.23066   1.00
C3       0.72599    0.08363    0.22450   1.00
C3       0.72056    -0.08405   0.26904   1.00
C5       0.80166    0.02228    0.30432   1.00
H1       0.80223    -0.02691   0.21555   1.00
H1       0.79295    0.10021    0.29496   1.00
H1       0.80231    -0.09901   0.21561   1.00
H1       0.70693    0.09901    0.20456   1.00
H1       0.69791    -0.10021   0.28395   1.00
C5       0.68729    -0.02228   0.29107   1.00
H1       0.70702    0.02691    0.20453   1.00
H2       0.67426    -0.04256   0.31273   1.00
H2       0.69898    0.00269    0.30810   1.00
H2       0.80940    0.04256    0.32838   1.00
H2       0.78639    -0.00269   0.31822   1.00
N1       0.65713    -0.00857   0.26412   1.00
C6       0.63358    -0.03073   0.24235   1.00
C6       0.64714    0.02846    0.25742   1.00
C6       0.60857    -0.00759   0.22107   1.00
C6       0.61718    0.03005    0.23066   1.00
H3       0.63462    -0.06197   0.24160   1.00
H3       0.66096    0.05300    0.27090   1.00
H3       0.58649    -0.01713   0.20085   1.00
H3       0.60320    0.05575    0.21938   1.00
N1       0.83718    0.00857    0.28498   1.00
C6       0.84845    -0.02846   0.28073   1.00
C6       0.86509    0.03073    0.26916   1.00
C6       0.88372    -0.03005   0.26153   1.00
C6       0.89430    0.00759    0.25416   1.00
H3       0.83190    -0.05300   0.29070   1.00
H3       0.86424    0.06197    0.26819   1.00
H3       0.89991    -0.05575   0.25374   1.00
H3       0.92042    0.01713    0.23952   1.00
C4       0.75002    0.25020    0.02085   1.00
C4       0.74998    0.24980    -0.02085   1.00
C3a      0.77568    0.27485    0.04254   1.00
C3       0.73056    0.27908    -0.04232   1.00
C3       0.72443    0.22613    0.04232   1.00
C3a      0.76932    0.21994    -0.04254   1.00
C2       0.74992    0.25001    0.10512   1.00
C2       0.74992    0.25001    -0.10512   1.00
C3       0.77527    0.27431    0.08405   1.00
C3       0.73066    0.27920    -0.08363   1.00
C3       0.72450    0.22599    0.08363   1.00
C3       0.76904    0.22056    -0.08405   1.00
C5       0.80432    0.30166    0.02228   1.00
H1       0.71555    0.30223    -0.02691   1.00
H1       0.79496    0.29295    0.10021   1.00
H1       0.71561    0.30231    -0.09901   1.00
H1       0.70456    0.20693    0.09901   1.00
H1       0.78395    0.19791    -0.10021   1.00
C5       0.79107    0.18729    -0.02228   1.00
H1       0.70453    0.20702    0.02691   1.00
H2       0.81273    0.17426    -0.04256   1.00
H2       0.80810    0.19898    0.00269   1.00
H2       0.82838    0.30940    0.04256   1.00
H2       0.81822    0.28639    -0.00269   1.00
N1       0.76412    0.15713    -0.00857   1.00
C6       0.74235    0.13358    -0.03073   1.00
C6       0.75742    0.14714    0.02846   1.00
C6       0.72107    0.10857    -0.00759   1.00
C6       0.73066    0.11718    0.03005   1.00
H3       0.74160    0.13462    -0.06197   1.00
H3       0.77090    0.16096    0.05300   1.00
H3       0.70085    0.08649    -0.01713   1.00
H3       0.71938    0.10320    0.05575   1.00
N1       0.78498    0.33718    0.00857   1.00
C6       0.78073    0.34845    -0.02846   1.00
C6       0.76916    0.36509    0.03073   1.00
C6       0.76153    0.38372    -0.03005   1.00
C6       0.75416    0.39430    0.00759   1.00
H3       0.79070    0.33190    -0.05300   1.00
H3       0.76819    0.36424    0.06197   1.00
H3       0.75374    0.39991    -0.05575   1.00
H3       0.73952    0.42042    0.01713   1.00
C4       1.00002    0.99980    1.22915   1.00
C4       0.99998    1.00020    1.27085   1.00
C3a      1.02568    0.97515    1.20746   1.00
C3       0.98056    0.97092    1.29232   1.00
C3       0.97443    1.02387    1.20768   1.00
C3a      1.01932    1.03006    1.29254   1.00
C2       0.99992    0.99999    1.14488   1.00
C2       0.99992    0.99999    1.35512   1.00
C3       1.02527    0.97569    1.16595   1.00
C3       0.98066    0.97080    1.33363   1.00
C3       0.97450    1.02401    1.16637   1.00
C3       1.01904    1.02944    1.33405   1.00
C5       1.05432    0.94834    1.22772   1.00
H1       0.96555    0.94777    1.27691   1.00
H1       1.04496    0.95705    1.14979   1.00
H1       0.96561    0.94769    1.34901   1.00
H1       0.95456    1.04307    1.15099   1.00
H1       1.03395    1.05209    1.35021   1.00
C5       1.04107    1.06271    1.27228   1.00
H1       0.95453    1.04298    1.22309   1.00
H2       1.06273    1.07574    1.29256   1.00
H2       1.05810    1.05102    1.24731   1.00
H2       1.07838    0.94060    1.20744   1.00
H2       1.06822    0.96361    1.25269   1.00
N1       1.01412    1.09287    1.25857   1.00
C6       0.99235    1.11642    1.28073   1.00
C6       1.00742    1.10286    1.22154   1.00
C6       0.97107    1.14143    1.25759   1.00
C6       0.98066    1.13282    1.21995   1.00
H3       0.99160    1.11538    1.31197   1.00
H3       1.02090    1.08904    1.19700   1.00
H3       0.95085    1.16351    1.26713   1.00
H3       0.96938    1.14680    1.19425   1.00
N1       1.03498    0.91282    1.24143   1.00
C6       1.03073    0.90155    1.27846   1.00
C6       1.01916    0.88491    1.21927   1.00
C6       1.01153    0.86628    1.28005   1.00
C6       1.00416    0.85570    1.24241   1.00
H3       1.04070    0.91810    1.30300   1.00
H3       1.01819    0.88576    1.18803   1.00
H3       1.00374    0.85009    1.30575   1.00
H3       0.98952    0.82958    1.23287   1.00
C4       0.99980    1.22915    1.00002   1.00
C4       1.00020    1.27085    0.99998   1.00
C3a      0.97515    1.20746    1.02568   1.00
C3       0.97092    1.29232    0.98056   1.00
C3       1.02387    1.20768    0.97443   1.00
C3a      1.03006    1.29254    1.01932   1.00
C2       0.99999    1.14488    0.99992   1.00
C2       0.99999    1.35512    0.99992   1.00
C3       0.97569    1.16595    1.02527   1.00
C3       0.97080    1.33363    0.98066   1.00
C3       1.02401    1.16637    0.97450   1.00
C3       1.02944    1.33405    1.01904   1.00
C5       0.94834    1.22772    1.05432   1.00
H1       0.94777    1.27691    0.96555   1.00
H1       0.95705    1.14979    1.04496   1.00
H1       0.94769    1.34901    0.96561   1.00
H1       1.04307    1.15099    0.95456   1.00
H1       1.05209    1.35021    1.03395   1.00
C5       1.06271    1.27228    1.04107   1.00
H1       1.04298    1.22309    0.95453   1.00
H2       1.07574    1.29256    1.06273   1.00
H2       1.05102    1.24731    1.05810   1.00
H2       0.94060    1.20744    1.07838   1.00
H2       0.96361    1.25269    1.06822   1.00
N1       1.09287    1.25857    1.01412   1.00
C6       1.11642    1.28073    0.99235   1.00
C6       1.10286    1.22154    1.00742   1.00
C6       1.14143    1.25759    0.97107   1.00
C6       1.13282    1.21995    0.98066   1.00
H3       1.11538    1.31197    0.99160   1.00
H3       1.08904    1.19700    1.02090   1.00
H3       1.16351    1.26713    0.95085   1.00
H3       1.14680    1.19425    0.96938   1.00
N1       0.91282    1.24143    1.03498   1.00
C6       0.90155    1.27846    1.03073   1.00
C6       0.88491    1.21927    1.01916   1.00
C6       0.86628    1.28005    1.01153   1.00
C6       0.85570    1.24241    1.00416   1.00
H3       0.91810    1.30300    1.04070   1.00
H3       0.88576    1.18803    1.01819   1.00
H3       0.85009    1.30575    1.00374   1.00
H3       0.82958    1.23287    0.98952   1.00
C4       0.77085    1.00002    1.00020   1.00
C4       0.72915    0.99998    0.99980   1.00
C3a      0.79254    1.02568    1.02485   1.00
C3       0.70768    0.98056    1.02908   1.00
C3       0.79232    0.97443    0.97613   1.00
C3a      0.70746    1.01932    0.96994   1.00
C2       0.85512    0.99992    1.00001   1.00
C2       0.64488    0.99992    1.00001   1.00
C3       0.83405    1.02527    1.02431   1.00
C3       0.66637    0.98066    1.02920   1.00
C3       0.83363    0.97450    0.97599   1.00
C3       0.66595    1.01904    0.97056   1.00
C5       0.77228    1.05432    1.05166   1.00
H1       0.72309    0.96555    1.05223   1.00
H1       0.85021    1.04496    1.04295   1.00
H1       0.65099    0.96561    1.05231   1.00
H1       0.84901    0.95456    0.95693   1.00
H1       0.64979    1.03395    0.94791   1.00
C5       0.72772    1.04107    0.93729   1.00
H1       0.77691    0.95453    0.95702   1.00
H2       0.70744    1.06273    0.92426   1.00
H2       0.75269    1.05810    0.94898   1.00
H2       0.79256    1.07838    1.05940   1.00
H2       0.74731    1.06822    1.03639   1.00
N1       0.74143    1.01412    0.90713   1.00
C6       0.71927    0.99235    0.88358   1.00
C6       0.77846    1.00742    0.89714   1.00
C6       0.74241    0.97107    0.85857   1.00
C6       0.78005    0.98066    0.86718   1.00
H3       0.68803    0.99160    0.88462   1.00
H3       0.80300    1.02090    0.91096   1.00
H3       0.73287    0.95085    0.83649   1.00
H3       0.80575    0.96938    0.85320   1.00
N1       0.75857    1.03498    1.08718   1.00
C6       0.72154    1.03073    1.09845   1.00
C6       0.78073    1.01916    1.11509   1.00
C6       0.71995    1.01153    1.13372   1.00
C6       0.75759    1.00416    1.14430   1.00
H3       0.69700    1.04070    1.08190   1.00
H3       0.81197    1.01819    1.11424   1.00
H3       0.69425    1.00374    1.14991   1.00
H3       0.76713    0.98952    1.17042   1.00
C4       1.22915    1.00002    0.99980   1.00
C4       1.27085    0.99998    1.00020   1.00
C3a      1.20746    1.02568    0.97515   1.00
C3       1.29232    0.98056    0.97092   1.00
C3       1.20768    0.97443    1.02387   1.00
C3a      1.29254    1.01932    1.03006   1.00
C2       1.14488    0.99992    0.99999   1.00
C2       1.35512    0.99992    0.99999   1.00
C3       1.16595    1.02527    0.97569   1.00
C3       1.33363    0.98066    0.97080   1.00
C3       1.16637    0.97450    1.02401   1.00
C3       1.33405    1.01904    1.02944   1.00
C5       1.22772    1.05432    0.94834   1.00
H1       1.27691    0.96555    0.94777   1.00
H1       1.14979    1.04496    0.95705   1.00
H1       1.34901    0.96561    0.94769   1.00
H1       1.15099    0.95456    1.04307   1.00
H1       1.35021    1.03395    1.05209   1.00
C5       1.27228    1.04107    1.06271   1.00
H1       1.22309    0.95453    1.04298   1.00
H2       1.29256    1.06273    1.07574   1.00
H2       1.24731    1.05810    1.05102   1.00
H2       1.20744    1.07838    0.94060   1.00
H2       1.25269    1.06822    0.96361   1.00
N1       1.25857    1.01412    1.09287   1.00
C6       1.28073    0.99235    1.11642   1.00
C6       1.22154    1.00742    1.10286   1.00
C6       1.25759    0.97107    1.14143   1.00
C6       1.21995    0.98066    1.13282   1.00
H3       1.31197    0.99160    1.11538   1.00
H3       1.19700    1.02090    1.08904   1.00
H3       1.26713    0.95085    1.16351   1.00
H3       1.19425    0.96938    1.14680   1.00
N1       1.24143    1.03498    0.91282   1.00
C6       1.27846    1.03073    0.90155   1.00
C6       1.21927    1.01916    0.88491   1.00
C6       1.28005    1.01153    0.86628   1.00
C6       1.24241    1.00416    0.85570   1.00
H3       1.30300    1.04070    0.91810   1.00
H3       1.18803    1.01819    0.88576   1.00
H3       1.30575    1.00374    0.85009   1.00
H3       1.23287    0.98952    0.82958   1.00
C4       1.00020    0.77085    1.00002   1.00
C4       0.99980    0.72915    0.99998   1.00
C3a      1.02485    0.79254    1.02568   1.00
C3       1.02908    0.70768    0.98056   1.00
C3       0.97613    0.79232    0.97443   1.00
C3a      0.96994    0.70746    1.01932   1.00
C2       1.00001    0.85512    0.99992   1.00
C2       1.00001    0.64488    0.99992   1.00
C3       1.02431    0.83405    1.02527   1.00
C3       1.02920    0.66637    0.98066   1.00
C3       0.97599    0.83363    0.97450   1.00
C3       0.97056    0.66595    1.01904   1.00
C5       1.05166    0.77228    1.05432   1.00
H1       1.05223    0.72309    0.96555   1.00
H1       1.04295    0.85021    1.04496   1.00
H1       1.05231    0.65099    0.96561   1.00
H1       0.95693    0.84901    0.95456   1.00
H1       0.94791    0.64979    1.03395   1.00
C5       0.93729    0.72772    1.04107   1.00
H1       0.95702    0.77691    0.95453   1.00
H2       0.92426    0.70744    1.06273   1.00
H2       0.94898    0.75269    1.05810   1.00
H2       1.05940    0.79256    1.07838   1.00
H2       1.03639    0.74731    1.06822   1.00
N1       0.90713    0.74143    1.01412   1.00
C6       0.88358    0.71927    0.99235   1.00
C6       0.89714    0.77846    1.00742   1.00
C6       0.85857    0.74241    0.97107   1.00
C6       0.86718    0.78005    0.98066   1.00
H3       0.88462    0.68803    0.99160   1.00
H3       0.91096    0.80300    1.02090   1.00
H3       0.83649    0.73287    0.95085   1.00
H3       0.85320    0.80575    0.96938   1.00
N1       1.08718    0.75857    1.03498   1.00
C6       1.09845    0.72154    1.03073   1.00
C6       1.11509    0.78073    1.01916   1.00
C6       1.13372    0.71995    1.01153   1.00
C6       1.14430    0.75759    1.00416   1.00
H3       1.08190    0.69700    1.04070   1.00
H3       1.11424    0.81197    1.01819   1.00
H3       1.14991    0.69425    1.00374   1.00
H3       1.17042    0.76713    0.98952   1.00
C4       1.00002    1.00020    0.77085   1.00
C4       0.99998    0.99980    0.72915   1.00
C3a      1.02568    1.02485    0.79254   1.00
C3       0.98056    1.02908    0.70768   1.00
C3       0.97443    0.97613    0.79232   1.00
C3a      1.01932    0.96994    0.70746   1.00
C2       0.99992    1.00001    0.85512   1.00
C2       0.99992    1.00001    0.64488   1.00
C3       1.02527    1.02431    0.83405   1.00
C3       0.98066    1.02920    0.66637   1.00
C3       0.97450    0.97599    0.83363   1.00
C3       1.01904    0.97056    0.66595   1.00
C5       1.05432    1.05166    0.77228   1.00
H1       0.96555    1.05223    0.72309   1.00
H1       1.04496    1.04295    0.85021   1.00
H1       0.96561    1.05231    0.65099   1.00
H1       0.95456    0.95693    0.84901   1.00
H1       1.03395    0.94791    0.64979   1.00
C5       1.04107    0.93729    0.72772   1.00
H1       0.95453    0.95702    0.77691   1.00
H2       1.06273    0.92426    0.70744   1.00
H2       1.05810    0.94898    0.75269   1.00
H2       1.07838    1.05940    0.79256   1.00
H2       1.06822    1.03639    0.74731   1.00
N1       1.01412    0.90713    0.74143   1.00
C6       0.99235    0.88358    0.71927   1.00
C6       1.00742    0.89714    0.77846   1.00
C6       0.97107    0.85857    0.74241   1.00
C6       0.98066    0.86718    0.78005   1.00
H3       0.99160    0.88462    0.68803   1.00
H3       1.02090    0.91096    0.80300   1.00
H3       0.95085    0.83649    0.73287   1.00
H3       0.96938    0.85320    0.80575   1.00
N1       1.03498    1.08718    0.75857   1.00
C6       1.03073    1.09845    0.72154   1.00
C6       1.01916    1.11509    0.78073   1.00
C6       1.01153    1.13372    0.71995   1.00
C6       1.00416    1.14430    0.75759   1.00
H3       1.04070    1.08190    0.69700   1.00
H3       1.01819    1.11424    0.81197   1.00
H3       1.00374    1.14991    0.69425   1.00
H3       0.98952    1.17042    0.76713   1.00
C4       0.50002    0.49980    1.22915   1.00
C4       0.49998    0.50020    1.27085   1.00
C3a      0.52568    0.47515    1.20746   1.00
C3       0.48056    0.47092    1.29232   1.00
C3       0.47443    0.52387    1.20768   1.00
C3a      0.51932    0.53006    1.29254   1.00
C2       0.49992    0.49999    1.14488   1.00
C2       0.49992    0.49999    1.35512   1.00
C3       0.52527    0.47569    1.16595   1.00
C3       0.48066    0.47080    1.33363   1.00
C3       0.47450    0.52401    1.16637   1.00
C3       0.51904    0.52944    1.33405   1.00
C5       0.55432    0.44834    1.22772   1.00
H1       0.46555    0.44777    1.27691   1.00
H1       0.54496    0.45705    1.14979   1.00
H1       0.46561    0.44769    1.34901   1.00
H1       0.45456    0.54307    1.15099   1.00
H1       0.53395    0.55209    1.35021   1.00
C5       0.54107    0.56271    1.27228   1.00
H1       0.45453    0.54298    1.22309   1.00
H2       0.56273    0.57574    1.29256   1.00
H2       0.55810    0.55102    1.24731   1.00
H2       0.57838    0.44060    1.20744   1.00
H2       0.56822    0.46361    1.25269   1.00
N1       0.51412    0.59287    1.25857   1.00
C6       0.49235    0.61642    1.28073   1.00
C6       0.50742    0.60286    1.22154   1.00
C6       0.47107    0.64143    1.25759   1.00
C6       0.48066    0.63282    1.21995   1.00
H3       0.49160    0.61538    1.31197   1.00
H3       0.52090    0.58904    1.19700   1.00
H3       0.45085    0.66351    1.26713   1.00
H3       0.46938    0.64680    1.19425   1.00
N1       0.53498    0.41282    1.24143   1.00
C6       0.53073    0.40155    1.27846   1.00
C6       0.51916    0.38491    1.21927   1.00
C6       0.51153    0.36628    1.28005   1.00
C6       0.50416    0.35570    1.24241   1.00
H3       0.54070    0.41810    1.30300   1.00
H3       0.51819    0.38576    1.18803   1.00
H3       0.50374    0.35009    1.30575   1.00
H3       0.48952    0.32958    1.23287   1.00
C4       0.49980    0.72915    1.00002   1.00
C4       0.50020    0.77085    0.99998   1.00
C3a      0.47515    0.70746    1.02568   1.00
C3       0.47092    0.79232    0.98056   1.00
C3       0.52387    0.70768    0.97443   1.00
C3a      0.53006    0.79254    1.01932   1.00
C2       0.49999    0.64488    0.99992   1.00
C2       0.49999    0.85512    0.99992   1.00
C3       0.47569    0.66595    1.02527   1.00
C3       0.47080    0.83363    0.98066   1.00
C3       0.52401    0.66637    0.97450   1.00
C3       0.52944    0.83405    1.01904   1.00
C5       0.44834    0.72772    1.05432   1.00
H1       0.44777    0.77691    0.96555   1.00
H1       0.45705    0.64979    1.04496   1.00
H1       0.44769    0.84901    0.96561   1.00
H1       0.54307    0.65099    0.95456   1.00
H1       0.55209    0.85021    1.03395   1.00
C5       0.56271    0.77228    1.04107   1.00
H1       0.54298    0.72309    0.95453   1.00
H2       0.57574    0.79256    1.06273   1.00
H2       0.55102    0.74731    1.05810   1.00
H2       0.44060    0.70744    1.07838   1.00
H2       0.46361    0.75269    1.06822   1.00
N1       0.59287    0.75857    1.01412   1.00
C6       0.61642    0.78073    0.99235   1.00
C6       0.60286    0.72154    1.00742   1.00
C6       0.64143    0.75759    0.97107   1.00
C6       0.63282    0.71995    0.98066   1.00
H3       0.61538    0.81197    0.99160   1.00
H3       0.58904    0.69700    1.02090   1.00
H3       0.66351    0.76713    0.95085   1.00
H3       0.64680    0.69425    0.96938   1.00
N1       0.41282    0.74143    1.03498   1.00
C6       0.40155    0.77846    1.03073   1.00
C6       0.38491    0.71927    1.01916   1.00
C6       0.36628    0.78005    1.01153   1.00
C6       0.35570    0.74241    1.00416   1.00
H3       0.41810    0.80300    1.04070   1.00
H3       0.38576    0.68803    1.01819   1.00
H3       0.35009    0.80575    1.00374   1.00
H3       0.32958    0.73287    0.98952   1.00
C4       0.27085    0.50002    1.00020   1.00
C4       0.22915    0.49998    0.99980   1.00
C3a      0.29254    0.52568    1.02485   1.00
C3       0.20768    0.48056    1.02908   1.00
C3       0.29232    0.47443    0.97613   1.00
C3a      0.20746    0.51932    0.96994   1.00
C2       0.35512    0.49992    1.00001   1.00
C2       0.14488    0.49992    1.00001   1.00
C3       0.33405    0.52527    1.02431   1.00
C3       0.16637    0.48066    1.02920   1.00
C3       0.33363    0.47450    0.97599   1.00
C3       0.16595    0.51904    0.97056   1.00
C5       0.27228    0.55432    1.05166   1.00
H1       0.22309    0.46555    1.05223   1.00
H1       0.35021    0.54496    1.04295   1.00
H1       0.15099    0.46561    1.05231   1.00
H1       0.34901    0.45456    0.95693   1.00
H1       0.14979    0.53395    0.94791   1.00
C5       0.22772    0.54107    0.93729   1.00
H1       0.27691    0.45453    0.95702   1.00
H2       0.20744    0.56273    0.92426   1.00
H2       0.25269    0.55810    0.94898   1.00
H2       0.29256    0.57838    1.05940   1.00
H2       0.24731    0.56822    1.03639   1.00
N1       0.24143    0.51412    0.90713   1.00
C6       0.21927    0.49235    0.88358   1.00
C6       0.27846    0.50742    0.89714   1.00
C6       0.24241    0.47107    0.85857   1.00
C6       0.28005    0.48066    0.86718   1.00
H3       0.18803    0.49160    0.88462   1.00
H3       0.30300    0.52090    0.91096   1.00
H3       0.23287    0.45085    0.83649   1.00
H3       0.30575    0.46938    0.85320   1.00
N1       0.25857    0.53498    1.08718   1.00
C6       0.22154    0.53073    1.09845   1.00
C6       0.28073    0.51916    1.11509   1.00
C6       0.21995    0.51153    1.13372   1.00
C6       0.25759    0.50416    1.14430   1.00
H3       0.19700    0.54070    1.08190   1.00
H3       0.31197    0.51819    1.11424   1.00
H3       0.19425    0.50374    1.14991   1.00
H3       0.26713    0.48952    1.17042   1.00
C4       0.72915    0.50002    0.99980   1.00
C4       0.77085    0.49998    1.00020   1.00
C3a      0.70746    0.52568    0.97515   1.00
C3       0.79232    0.48056    0.97092   1.00
C3       0.70768    0.47443    1.02387   1.00
C3a      0.79254    0.51932    1.03006   1.00
C2       0.64488    0.49992    0.99999   1.00
C2       0.85512    0.49992    0.99999   1.00
C3       0.66595    0.52527    0.97569   1.00
C3       0.83363    0.48066    0.97080   1.00
C3       0.66637    0.47450    1.02401   1.00
C3       0.83405    0.51904    1.02944   1.00
C5       0.72772    0.55432    0.94834   1.00
H1       0.77691    0.46555    0.94777   1.00
H1       0.64979    0.54496    0.95705   1.00
H1       0.84901    0.46561    0.94769   1.00
H1       0.65099    0.45456    1.04307   1.00
H1       0.85021    0.53395    1.05209   1.00
C5       0.77228    0.54107    1.06271   1.00
H1       0.72309    0.45453    1.04298   1.00
H2       0.79256    0.56273    1.07574   1.00
H2       0.74731    0.55810    1.05102   1.00
H2       0.70744    0.57838    0.94060   1.00
H2       0.75269    0.56822    0.96361   1.00
N1       0.75857    0.51412    1.09287   1.00
C6       0.78073    0.49235    1.11642   1.00
C6       0.72154    0.50742    1.10286   1.00
C6       0.75759    0.47107    1.14143   1.00
C6       0.71995    0.48066    1.13282   1.00
H3       0.81197    0.49160    1.11538   1.00
H3       0.69700    0.52090    1.08904   1.00
H3       0.76713    0.45085    1.16351   1.00
H3       0.69425    0.46938    1.14680   1.00
N1       0.74143    0.53498    0.91282   1.00
C6       0.77846    0.53073    0.90155   1.00
C6       0.71927    0.51916    0.88491   1.00
C6       0.78005    0.51153    0.86628   1.00
C6       0.74241    0.50416    0.85570   1.00
H3       0.80300    0.54070    0.91810   1.00
H3       0.68803    0.51819    0.88576   1.00
H3       0.80575    0.50374    0.85009   1.00
H3       0.73287    0.48952    0.82958   1.00
C4       0.50020    0.27085    1.00002   1.00
C4       0.49980    0.22915    0.99998   1.00
C3a      0.52485    0.29254    1.02568   1.00
C3       0.52908    0.20768    0.98056   1.00
C3       0.47613    0.29232    0.97443   1.00
C3a      0.46994    0.20746    1.01932   1.00
C2       0.50001    0.35512    0.99992   1.00
C2       0.50001    0.14488    0.99992   1.00
C3       0.52431    0.33405    1.02527   1.00
C3       0.52920    0.16637    0.98066   1.00
C3       0.47599    0.33363    0.97450   1.00
C3       0.47056    0.16595    1.01904   1.00
C5       0.55166    0.27228    1.05432   1.00
H1       0.55223    0.22309    0.96555   1.00
H1       0.54295    0.35021    1.04496   1.00
H1       0.55231    0.15099    0.96561   1.00
H1       0.45693    0.34901    0.95456   1.00
H1       0.44791    0.14979    1.03395   1.00
C5       0.43729    0.22772    1.04107   1.00
H1       0.45702    0.27691    0.95453   1.00
H2       0.42426    0.20744    1.06273   1.00
H2       0.44898    0.25269    1.05810   1.00
H2       0.55940    0.29256    1.07838   1.00
H2       0.53639    0.24731    1.06822   1.00
N1       0.40713    0.24143    1.01412   1.00
C6       0.38358    0.21927    0.99235   1.00
C6       0.39714    0.27846    1.00742   1.00
C6       0.35857    0.24241    0.97107   1.00
C6       0.36718    0.28005    0.98066   1.00
H3       0.38462    0.18803    0.99160   1.00
H3       0.41096    0.30300    1.02090   1.00
H3       0.33649    0.23287    0.95085   1.00
H3       0.35320    0.30575    0.96938   1.00
N1       0.58718    0.25857    1.03498   1.00
C6       0.59845    0.22154    1.03073   1.00
C6       0.61509    0.28073    1.01916   1.00
C6       0.63372    0.21995    1.01153   1.00
C6       0.64430    0.25759    1.00416   1.00
H3       0.58190    0.19700    1.04070   1.00
H3       0.61424    0.31197    1.01819   1.00
H3       0.64991    0.19425    1.00374   1.00
H3       0.67042    0.26713    0.98952   1.00
C4       0.50002    0.50020    0.77085   1.00
C4       0.49998    0.49980    0.72915   1.00
C3a      0.52568    0.52485    0.79254   1.00
C3       0.48056    0.52908    0.70768   1.00
C3       0.47443    0.47613    0.79232   1.00
C3a      0.51932    0.46994    0.70746   1.00
C2       0.49992    0.50001    0.85512   1.00
C2       0.49992    0.50001    0.64488   1.00
C3       0.52527    0.52431    0.83405   1.00
C3       0.48066    0.52920    0.66637   1.00
C3       0.47450    0.47599    0.83363   1.00
C3       0.51904    0.47056    0.66595   1.00
C5       0.55432    0.55166    0.77228   1.00
H1       0.46555    0.55223    0.72309   1.00
H1       0.54496    0.54295    0.85021   1.00
H1       0.46561    0.55231    0.65099   1.00
H1       0.45456    0.45693    0.84901   1.00
H1       0.53395    0.44791    0.64979   1.00
C5       0.54107    0.43729    0.72772   1.00
H1       0.45453    0.45702    0.77691   1.00
H2       0.56273    0.42426    0.70744   1.00
H2       0.55810    0.44898    0.75269   1.00
H2       0.57838    0.55940    0.79256   1.00
H2       0.56822    0.53639    0.74731   1.00
N1       0.51412    0.40713    0.74143   1.00
C6       0.49235    0.38358    0.71927   1.00
C6       0.50742    0.39714    0.77846   1.00
C6       0.47107    0.35857    0.74241   1.00
C6       0.48066    0.36718    0.78005   1.00
H3       0.49160    0.38462    0.68803   1.00
H3       0.52090    0.41096    0.80300   1.00
H3       0.45085    0.33649    0.73287   1.00
H3       0.46938    0.35320    0.80575   1.00
N1       0.53498    0.58718    0.75857   1.00
C6       0.53073    0.59845    0.72154   1.00
C6       0.51916    0.61509    0.78073   1.00
C6       0.51153    0.63372    0.71995   1.00
C6       0.50416    0.64430    0.75759   1.00
H3       0.54070    0.58190    0.69700   1.00
H3       0.51819    0.61424    0.81197   1.00
H3       0.50374    0.64991    0.69425   1.00
H3       0.48952    0.67042    0.76713   1.00
C4       0.50002    0.99980    0.72915   1.00
C4       0.49998    1.00020    0.77085   1.00
C3a      0.52568    0.97515    0.70746   1.00
C3       0.48056    0.97092    0.79232   1.00
C3       0.47443    1.02387    0.70768   1.00
C3a      0.51932    1.03006    0.79254   1.00
C2       0.49992    0.99999    0.64488   1.00
C2       0.49992    0.99999    0.85512   1.00
C3       0.52527    0.97569    0.66595   1.00
C3       0.48066    0.97080    0.83363   1.00
C3       0.47450    1.02401    0.66637   1.00
C3       0.51904    1.02944    0.83405   1.00
C5       0.55432    0.94834    0.72772   1.00
H1       0.46555    0.94777    0.77691   1.00
H1       0.54496    0.95705    0.64979   1.00
H1       0.46561    0.94769    0.84901   1.00
H1       0.45456    1.04307    0.65099   1.00
H1       0.53395    1.05209    0.85021   1.00
C5       0.54107    1.06271    0.77228   1.00
H1       0.45453    1.04298    0.72309   1.00
H2       0.56273    1.07574    0.79256   1.00
H2       0.55810    1.05102    0.74731   1.00
H2       0.57838    0.94060    0.70744   1.00
H2       0.56822    0.96361    0.75269   1.00
N1       0.51412    1.09287    0.75857   1.00
C6       0.49235    1.11642    0.78073   1.00
C6       0.50742    1.10286    0.72154   1.00
C6       0.47107    1.14143    0.75759   1.00
C6       0.48066    1.13282    0.71995   1.00
H3       0.49160    1.11538    0.81197   1.00
H3       0.52090    1.08904    0.69700   1.00
H3       0.45085    1.16351    0.76713   1.00
H3       0.46938    1.14680    0.69425   1.00
N1       0.53498    0.91282    0.74143   1.00
C6       0.53073    0.90155    0.77846   1.00
C6       0.51916    0.88491    0.71927   1.00
C6       0.51153    0.86628    0.78005   1.00
C6       0.50416    0.85570    0.74241   1.00
H3       0.54070    0.91810    0.80300   1.00
H3       0.51819    0.88576    0.68803   1.00
H3       0.50374    0.85009    0.80575   1.00
H3       0.48952    0.82958    0.73287   1.00
C4       0.49980    1.22915    0.50002   1.00
C4       0.50020    1.27085    0.49998   1.00
C3a      0.47515    1.20746    0.52568   1.00
C3       0.47092    1.29232    0.48056   1.00
C3       0.52387    1.20768    0.47443   1.00
C3a      0.53006    1.29254    0.51932   1.00
C2       0.49999    1.14488    0.49992   1.00
C2       0.49999    1.35512    0.49992   1.00
C3       0.47569    1.16595    0.52527   1.00
C3       0.47080    1.33363    0.48066   1.00
C3       0.52401    1.16637    0.47450   1.00
C3       0.52944    1.33405    0.51904   1.00
C5       0.44834    1.22772    0.55432   1.00
H1       0.44777    1.27691    0.46555   1.00
H1       0.45705    1.14979    0.54496   1.00
H1       0.44769    1.34901    0.46561   1.00
H1       0.54307    1.15099    0.45456   1.00
H1       0.55209    1.35021    0.53395   1.00
C5       0.56271    1.27228    0.54107   1.00
H1       0.54298    1.22309    0.45453   1.00
H2       0.57574    1.29256    0.56273   1.00
H2       0.55102    1.24731    0.55810   1.00
H2       0.44060    1.20744    0.57838   1.00
H2       0.46361    1.25269    0.56822   1.00
N1       0.59287    1.25857    0.51412   1.00
C6       0.61642    1.28073    0.49235   1.00
C6       0.60286    1.22154    0.50742   1.00
C6       0.64143    1.25759    0.47107   1.00
C6       0.63282    1.21995    0.48066   1.00
H3       0.61538    1.31197    0.49160   1.00
H3       0.58904    1.19700    0.52090   1.00
H3       0.66351    1.26713    0.45085   1.00
H3       0.64680    1.19425    0.46938   1.00
N1       0.41282    1.24143    0.53498   1.00
C6       0.40155    1.27846    0.53073   1.00
C6       0.38491    1.21927    0.51916   1.00
C6       0.36628    1.28005    0.51153   1.00
C6       0.35570    1.24241    0.50416   1.00
H3       0.41810    1.30300    0.54070   1.00
H3       0.38576    1.18803    0.51819   1.00
H3       0.35009    1.30575    0.50374   1.00
H3       0.32958    1.23287    0.48952   1.00
C4       0.27085    1.00002    0.50020   1.00
C4       0.22915    0.99998    0.49980   1.00
C3a      0.29254    1.02568    0.52485   1.00
C3       0.20768    0.98056    0.52908   1.00
C3       0.29232    0.97443    0.47613   1.00
C3a      0.20746    1.01932    0.46994   1.00
C2       0.35512    0.99992    0.50001   1.00
C2       0.14488    0.99992    0.50001   1.00
C3       0.33405    1.02527    0.52431   1.00
C3       0.16637    0.98066    0.52920   1.00
C3       0.33363    0.97450    0.47599   1.00
C3       0.16595    1.01904    0.47056   1.00
C5       0.27228    1.05432    0.55166   1.00
H1       0.22309    0.96555    0.55223   1.00
H1       0.35021    1.04496    0.54295   1.00
H1       0.15099    0.96561    0.55231   1.00
H1       0.34901    0.95456    0.45693   1.00
H1       0.14979    1.03395    0.44791   1.00
C5       0.22772    1.04107    0.43729   1.00
H1       0.27691    0.95453    0.45702   1.00
H2       0.20744    1.06273    0.42426   1.00
H2       0.25269    1.05810    0.44898   1.00
H2       0.29256    1.07838    0.55940   1.00
H2       0.24731    1.06822    0.53639   1.00
N1       0.24143    1.01412    0.40713   1.00
C6       0.21927    0.99235    0.38358   1.00
C6       0.27846    1.00742    0.39714   1.00
C6       0.24241    0.97107    0.35857   1.00
C6       0.28005    0.98066    0.36718   1.00
H3       0.18803    0.99160    0.38462   1.00
H3       0.30300    1.02090    0.41096   1.00
H3       0.23287    0.95085    0.33649   1.00
H3       0.30575    0.96938    0.35320   1.00
N1       0.25857    1.03498    0.58718   1.00
C6       0.22154    1.03073    0.59845   1.00
C6       0.28073    1.01916    0.61509   1.00
C6       0.21995    1.01153    0.63372   1.00
C6       0.25759    1.00416    0.64430   1.00
H3       0.19700    1.04070    0.58190   1.00
H3       0.31197    1.01819    0.61424   1.00
H3       0.19425    1.00374    0.64991   1.00
H3       0.26713    0.98952    0.67042   1.00
C4       0.72915    1.00002    0.49980   1.00
C4       0.77085    0.99998    0.50020   1.00
C3a      0.70746    1.02568    0.47515   1.00
C3       0.79232    0.98056    0.47092   1.00
C3       0.70768    0.97443    0.52387   1.00
C3a      0.79254    1.01932    0.53006   1.00
C2       0.64488    0.99992    0.49999   1.00
C2       0.85512    0.99992    0.49999   1.00
C3       0.66595    1.02527    0.47569   1.00
C3       0.83363    0.98066    0.47080   1.00
C3       0.66637    0.97450    0.52401   1.00
C3       0.83405    1.01904    0.52944   1.00
C5       0.72772    1.05432    0.44834   1.00
H1       0.77691    0.96555    0.44777   1.00
H1       0.64979    1.04496    0.45705   1.00
H1       0.84901    0.96561    0.44769   1.00
H1       0.65099    0.95456    0.54307   1.00
H1       0.85021    1.03395    0.55209   1.00
C5       0.77228    1.04107    0.56271   1.00
H1       0.72309    0.95453    0.54298   1.00
H2       0.79256    1.06273    0.57574   1.00
H2       0.74731    1.05810    0.55102   1.00
H2       0.70744    1.07838    0.44060   1.00
H2       0.75269    1.06822    0.46361   1.00
N1       0.75857    1.01412    0.59287   1.00
C6       0.78073    0.99235    0.61642   1.00
C6       0.72154    1.00742    0.60286   1.00
C6       0.75759    0.97107    0.64143   1.00
C6       0.71995    0.98066    0.63282   1.00
H3       0.81197    0.99160    0.61538   1.00
H3       0.69700    1.02090    0.58904   1.00
H3       0.76713    0.95085    0.66351   1.00
H3       0.69425    0.96938    0.64680   1.00
N1       0.74143    1.03498    0.41282   1.00
C6       0.77846    1.03073    0.40155   1.00
C6       0.71927    1.01916    0.38491   1.00
C6       0.78005    1.01153    0.36628   1.00
C6       0.74241    1.00416    0.35570   1.00
H3       0.80300    1.04070    0.41810   1.00
H3       0.68803    1.01819    0.38576   1.00
H3       0.80575    1.00374    0.35009   1.00
H3       0.73287    0.98952    0.32958   1.00
C4       0.50020    0.77085    0.50002   1.00
C4       0.49980    0.72915    0.49998   1.00
C3a      0.52485    0.79254    0.52568   1.00
C3       0.52908    0.70768    0.48056   1.00
C3       0.47613    0.79232    0.47443   1.00
C3a      0.46994    0.70746    0.51932   1.00
C2       0.50001    0.85512    0.49992   1.00
C2       0.50001    0.64488    0.49992   1.00
C3       0.52431    0.83405    0.52527   1.00
C3       0.52920    0.66637    0.48066   1.00
C3       0.47599    0.83363    0.47450   1.00
C3       0.47056    0.66595    0.51904   1.00
C5       0.55166    0.77228    0.55432   1.00
H1       0.55223    0.72309    0.46555   1.00
H1       0.54295    0.85021    0.54496   1.00
H1       0.55231    0.65099    0.46561   1.00
H1       0.45693    0.84901    0.45456   1.00
H1       0.44791    0.64979    0.53395   1.00
C5       0.43729    0.72772    0.54107   1.00
H1       0.45702    0.77691    0.45453   1.00
H2       0.42426    0.70744    0.56273   1.00
H2       0.44898    0.75269    0.55810   1.00
H2       0.55940    0.79256    0.57838   1.00
H2       0.53639    0.74731    0.56822   1.00
N1       0.40713    0.74143    0.51412   1.00
C6       0.38358    0.71927    0.49235   1.00
C6       0.39714    0.77846    0.50742   1.00
C6       0.35857    0.74241    0.47107   1.00
C6       0.36718    0.78005    0.48066   1.00
H3       0.38462    0.68803    0.49160   1.00
H3       0.41096    0.80300    0.52090   1.00
H3       0.33649    0.73287    0.45085   1.00
H3       0.35320    0.80575    0.46938   1.00
N1       0.58718    0.75857    0.53498   1.00
C6       0.59845    0.72154    0.53073   1.00
C6       0.61509    0.78073    0.51916   1.00
C6       0.63372    0.71995    0.51153   1.00
C6       0.64430    0.75759    0.50416   1.00
H3       0.58190    0.69700    0.54070   1.00
H3       0.61424    0.81197    0.51819   1.00
H3       0.64991    0.69425    0.50374   1.00
H3       0.67042    0.76713    0.48952   1.00
C4       0.50002    1.00020    0.27085   1.00
C4       0.49998    0.99980    0.22915   1.00
C3a      0.52568    1.02485    0.29254   1.00
C3       0.48056    1.02908    0.20768   1.00
C3       0.47443    0.97613    0.29232   1.00
C3a      0.51932    0.96994    0.20746   1.00
C2       0.49992    1.00001    0.35512   1.00
C2       0.49992    1.00001    0.14488   1.00
C3       0.52527    1.02431    0.33405   1.00
C3       0.48066    1.02920    0.16637   1.00
C3       0.47450    0.97599    0.33363   1.00
C3       0.51904    0.97056    0.16595   1.00
C5       0.55432    1.05166    0.27228   1.00
H1       0.46555    1.05223    0.22309   1.00
H1       0.54496    1.04295    0.35021   1.00
H1       0.46561    1.05231    0.15099   1.00
H1       0.45456    0.95693    0.34901   1.00
H1       0.53395    0.94791    0.14979   1.00
C5       0.54107    0.93729    0.22772   1.00
H1       0.45453    0.95702    0.27691   1.00
H2       0.56273    0.92426    0.20744   1.00
H2       0.55810    0.94898    0.25269   1.00
H2       0.57838    1.05940    0.29256   1.00
H2       0.56822    1.03639    0.24731   1.00
N1       0.51412    0.90713    0.24143   1.00
C6       0.49235    0.88358    0.21927   1.00
C6       0.50742    0.89714    0.27846   1.00
C6       0.47107    0.85857    0.24241   1.00
C6       0.48066    0.86718    0.28005   1.00
H3       0.49160    0.88462    0.18803   1.00
H3       0.52090    0.91096    0.30300   1.00
H3       0.45085    0.83649    0.23287   1.00
H3       0.46938    0.85320    0.30575   1.00
N1       0.53498    1.08718    0.25857   1.00
C6       0.53073    1.09845    0.22154   1.00
C6       0.51916    1.11509    0.28073   1.00
C6       0.51153    1.13372    0.21995   1.00
C6       0.50416    1.14430    0.25759   1.00
H3       0.54070    1.08190    0.19700   1.00
H3       0.51819    1.11424    0.31197   1.00
H3       0.50374    1.14991    0.19425   1.00
H3       0.48952    1.17042    0.26713   1.00
C4       1.00002    0.49980    0.72915   1.00
C4       0.99998    0.50020    0.77085   1.00
C3a      1.02568    0.47515    0.70746   1.00
C3       0.98056    0.47092    0.79232   1.00
C3       0.97443    0.52387    0.70768   1.00
C3a      1.01932    0.53006    0.79254   1.00
C2       0.99992    0.49999    0.64488   1.00
C2       0.99992    0.49999    0.85512   1.00
C3       1.02527    0.47569    0.66595   1.00
C3       0.98066    0.47080    0.83363   1.00
C3       0.97450    0.52401    0.66637   1.00
C3       1.01904    0.52944    0.83405   1.00
C5       1.05432    0.44834    0.72772   1.00
H1       0.96555    0.44777    0.77691   1.00
H1       1.04496    0.45705    0.64979   1.00
H1       0.96561    0.44769    0.84901   1.00
H1       0.95456    0.54307    0.65099   1.00
H1       1.03395    0.55209    0.85021   1.00
C5       1.04107    0.56271    0.77228   1.00
H1       0.95453    0.54298    0.72309   1.00
H2       1.06273    0.57574    0.79256   1.00
H2       1.05810    0.55102    0.74731   1.00
H2       1.07838    0.44060    0.70744   1.00
H2       1.06822    0.46361    0.75269   1.00
N1       1.01412    0.59287    0.75857   1.00
C6       0.99235    0.61642    0.78073   1.00
C6       1.00742    0.60286    0.72154   1.00
C6       0.97107    0.64143    0.75759   1.00
C6       0.98066    0.63282    0.71995   1.00
H3       0.99160    0.61538    0.81197   1.00
H3       1.02090    0.58904    0.69700   1.00
H3       0.95085    0.66351    0.76713   1.00
H3       0.96938    0.64680    0.69425   1.00
N1       1.03498    0.41282    0.74143   1.00
C6       1.03073    0.40155    0.77846   1.00
C6       1.01916    0.38491    0.71927   1.00
C6       1.01153    0.36628    0.78005   1.00
C6       1.00416    0.35570    0.74241   1.00
H3       1.04070    0.41810    0.80300   1.00
H3       1.01819    0.38576    0.68803   1.00
H3       1.00374    0.35009    0.80575   1.00
H3       0.98952    0.32958    0.73287   1.00
C4       0.99980    0.72915    0.50002   1.00
C4       1.00020    0.77085    0.49998   1.00
C3a      0.97515    0.70746    0.52568   1.00
C3       0.97092    0.79232    0.48056   1.00
C3       1.02387    0.70768    0.47443   1.00
C3a      1.03006    0.79254    0.51932   1.00
C2       0.99999    0.64488    0.49992   1.00
C2       0.99999    0.85512    0.49992   1.00
C3       0.97569    0.66595    0.52527   1.00
C3       0.97080    0.83363    0.48066   1.00
C3       1.02401    0.66637    0.47450   1.00
C3       1.02944    0.83405    0.51904   1.00
C5       0.94834    0.72772    0.55432   1.00
H1       0.94777    0.77691    0.46555   1.00
H1       0.95705    0.64979    0.54496   1.00
H1       0.94769    0.84901    0.46561   1.00
H1       1.04307    0.65099    0.45456   1.00
H1       1.05209    0.85021    0.53395   1.00
C5       1.06271    0.77228    0.54107   1.00
H1       1.04298    0.72309    0.45453   1.00
H2       1.07574    0.79256    0.56273   1.00
H2       1.05102    0.74731    0.55810   1.00
H2       0.94060    0.70744    0.57838   1.00
H2       0.96361    0.75269    0.56822   1.00
N1       1.09287    0.75857    0.51412   1.00
C6       1.11642    0.78073    0.49235   1.00
C6       1.10286    0.72154    0.50742   1.00
C6       1.14143    0.75759    0.47107   1.00
C6       1.13282    0.71995    0.48066   1.00
H3       1.11538    0.81197    0.49160   1.00
H3       1.08904    0.69700    0.52090   1.00
H3       1.16351    0.76713    0.45085   1.00
H3       1.14680    0.69425    0.46938   1.00
N1       0.91282    0.74143    0.53498   1.00
C6       0.90155    0.77846    0.53073   1.00
C6       0.88491    0.71927    0.51916   1.00
C6       0.86628    0.78005    0.51153   1.00
C6       0.85570    0.74241    0.50416   1.00
H3       0.91810    0.80300    0.54070   1.00
H3       0.88576    0.68803    0.51819   1.00
H3       0.85009    0.80575    0.50374   1.00
H3       0.82958    0.73287    0.48952   1.00
C4       0.77085    0.50002    0.50020   1.00
C4       0.72915    0.49998    0.49980   1.00
C3a      0.79254    0.52568    0.52485   1.00
C3       0.70768    0.48056    0.52908   1.00
C3       0.79232    0.47443    0.47613   1.00
C3a      0.70746    0.51932    0.46994   1.00
C2       0.85512    0.49992    0.50001   1.00
C2       0.64488    0.49992    0.50001   1.00
C3       0.83405    0.52527    0.52431   1.00
C3       0.66637    0.48066    0.52920   1.00
C3       0.83363    0.47450    0.47599   1.00
C3       0.66595    0.51904    0.47056   1.00
C5       0.77228    0.55432    0.55166   1.00
H1       0.72309    0.46555    0.55223   1.00
H1       0.85021    0.54496    0.54295   1.00
H1       0.65099    0.46561    0.55231   1.00
H1       0.84901    0.45456    0.45693   1.00
H1       0.64979    0.53395    0.44791   1.00
C5       0.72772    0.54107    0.43729   1.00
H1       0.77691    0.45453    0.45702   1.00
H2       0.70744    0.56273    0.42426   1.00
H2       0.75269    0.55810    0.44898   1.00
H2       0.79256    0.57838    0.55940   1.00
H2       0.74731    0.56822    0.53639   1.00
N1       0.74143    0.51412    0.40713   1.00
C6       0.71927    0.49235    0.38358   1.00
C6       0.77846    0.50742    0.39714   1.00
C6       0.74241    0.47107    0.35857   1.00
C6       0.78005    0.48066    0.36718   1.00
H3       0.68803    0.49160    0.38462   1.00
H3       0.80300    0.52090    0.41096   1.00
H3       0.73287    0.45085    0.33649   1.00
H3       0.80575    0.46938    0.35320   1.00
N1       0.75857    0.53498    0.58718   1.00
C6       0.72154    0.53073    0.59845   1.00
C6       0.78073    0.51916    0.61509   1.00
C6       0.71995    0.51153    0.63372   1.00
C6       0.75759    0.50416    0.64430   1.00
H3       0.69700    0.54070    0.58190   1.00
H3       0.81197    0.51819    0.61424   1.00
H3       0.69425    0.50374    0.64991   1.00
H3       0.76713    0.48952    0.67042   1.00
C4       1.22915    0.50002    0.49980   1.00
C4       1.27085    0.49998    0.50020   1.00
C3a      1.20746    0.52568    0.47515   1.00
C3       1.29232    0.48056    0.47092   1.00
C3       1.20768    0.47443    0.52387   1.00
C3a      1.29254    0.51932    0.53006   1.00
C2       1.14488    0.49992    0.49999   1.00
C2       1.35512    0.49992    0.49999   1.00
C3       1.16595    0.52527    0.47569   1.00
C3       1.33363    0.48066    0.47080   1.00
C3       1.16637    0.47450    0.52401   1.00
C3       1.33405    0.51904    0.52944   1.00
C5       1.22772    0.55432    0.44834   1.00
H1       1.27691    0.46555    0.44777   1.00
H1       1.14979    0.54496    0.45705   1.00
H1       1.34901    0.46561    0.44769   1.00
H1       1.15099    0.45456    0.54307   1.00
H1       1.35021    0.53395    0.55209   1.00
C5       1.27228    0.54107    0.56271   1.00
H1       1.22309    0.45453    0.54298   1.00
H2       1.29256    0.56273    0.57574   1.00
H2       1.24731    0.55810    0.55102   1.00
H2       1.20744    0.57838    0.44060   1.00
H2       1.25269    0.56822    0.46361   1.00
N1       1.25857    0.51412    0.59287   1.00
C6       1.28073    0.49235    0.61642   1.00
C6       1.22154    0.50742    0.60286   1.00
C6       1.25759    0.47107    0.64143   1.00
C6       1.21995    0.48066    0.63282   1.00
H3       1.31197    0.49160    0.61538   1.00
H3       1.19700    0.52090    0.58904   1.00
H3       1.26713    0.45085    0.66351   1.00
H3       1.19425    0.46938    0.64680   1.00
N1       1.24143    0.53498    0.41282   1.00
C6       1.27846    0.53073    0.40155   1.00
C6       1.21927    0.51916    0.38491   1.00
C6       1.28005    0.51153    0.36628   1.00
C6       1.24241    0.50416    0.35570   1.00
H3       1.30300    0.54070    0.41810   1.00
H3       1.18803    0.51819    0.38576   1.00
H3       1.30575    0.50374    0.35009   1.00
H3       1.23287    0.48952    0.32958   1.00
C4       1.00020    0.27085    0.50002   1.00
C4       0.99980    0.22915    0.49998   1.00
C3a      1.02485    0.29254    0.52568   1.00
C3       1.02908    0.20768    0.48056   1.00
C3       0.97613    0.29232    0.47443   1.00
C3a      0.96994    0.20746    0.51932   1.00
C2       1.00001    0.35512    0.49992   1.00
C2       1.00001    0.14488    0.49992   1.00
C3       1.02431    0.33405    0.52527   1.00
C3       1.02920    0.16637    0.48066   1.00
C3       0.97599    0.33363    0.47450   1.00
C3       0.97056    0.16595    0.51904   1.00
C5       1.05166    0.27228    0.55432   1.00
H1       1.05223    0.22309    0.46555   1.00
H1       1.04295    0.35021    0.54496   1.00
H1       1.05231    0.15099    0.46561   1.00
H1       0.95693    0.34901    0.45456   1.00
H1       0.94791    0.14979    0.53395   1.00
C5       0.93729    0.22772    0.54107   1.00
H1       0.95702    0.27691    0.45453   1.00
H2       0.92426    0.20744    0.56273   1.00
H2       0.94898    0.25269    0.55810   1.00
H2       1.05940    0.29256    0.57838   1.00
H2       1.03639    0.24731    0.56822   1.00
N1       0.90713    0.24143    0.51412   1.00
C6       0.88358    0.21927    0.49235   1.00
C6       0.89714    0.27846    0.50742   1.00
C6       0.85857    0.24241    0.47107   1.00
C6       0.86718    0.28005    0.48066   1.00
H3       0.88462    0.18803    0.49160   1.00
H3       0.91096    0.30300    0.52090   1.00
H3       0.83649    0.23287    0.45085   1.00
H3       0.85320    0.30575    0.46938   1.00
N1       1.08718    0.25857    0.53498   1.00
C6       1.09845    0.22154    0.53073   1.00
C6       1.11509    0.28073    0.51916   1.00
C6       1.13372    0.21995    0.51153   1.00
C6       1.14430    0.25759    0.50416   1.00
H3       1.08190    0.19700    0.54070   1.00
H3       1.11424    0.31197    0.51819   1.00
H3       1.14991    0.19425    0.50374   1.00
H3       1.17042    0.26713    0.48952   1.00
C4       1.00002    0.50020    0.27085   1.00
C4       0.99998    0.49980    0.22915   1.00
C3a      1.02568    0.52485    0.29254   1.00
C3       0.98056    0.52908    0.20768   1.00
C3       0.97443    0.47613    0.29232   1.00
C3a      1.01932    0.46994    0.20746   1.00
C2       0.99992    0.50001    0.35512   1.00
C2       0.99992    0.50001    0.14488   1.00
C3       1.02527    0.52431    0.33405   1.00
C3       0.98066    0.52920    0.16637   1.00
C3       0.97450    0.47599    0.33363   1.00
C3       1.01904    0.47056    0.16595   1.00
C5       1.05432    0.55166    0.27228   1.00
H1       0.96555    0.55223    0.22309   1.00
H1       1.04496    0.54295    0.35021   1.00
H1       0.96561    0.55231    0.15099   1.00
H1       0.95456    0.45693    0.34901   1.00
H1       1.03395    0.44791    0.14979   1.00
C5       1.04107    0.43729    0.22772   1.00
H1       0.95453    0.45702    0.27691   1.00
H2       1.06273    0.42426    0.20744   1.00
H2       1.05810    0.44898    0.25269   1.00
H2       1.07838    0.55940    0.29256   1.00
H2       1.06822    0.53639    0.24731   1.00
N1       1.01412    0.40713    0.24143   1.00
C6       0.99235    0.38358    0.21927   1.00
C6       1.00742    0.39714    0.27846   1.00
C6       0.97107    0.35857    0.24241   1.00
C6       0.98066    0.36718    0.28005   1.00
H3       0.99160    0.38462    0.18803   1.00
H3       1.02090    0.41096    0.30300   1.00
H3       0.95085    0.33649    0.23287   1.00
H3       0.96938    0.35320    0.30575   1.00
N1       1.03498    0.58718    0.25857   1.00
C6       1.03073    0.59845    0.22154   1.00
C6       1.01916    0.61509    0.28073   1.00
C6       1.01153    0.63372    0.21995   1.00
C6       1.00416    0.64430    0.25759   1.00
H3       1.04070    0.58190    0.19700   1.00
H3       1.01819    0.61424    0.31197   1.00
H3       1.00374    0.64991    0.19425   1.00
H3       0.98952    0.67042    0.26713   1.00
