data_IRMOF10_SG202_interpen_Ligand4lp_label_x.

_audit_creation_method             'generated by an auxiliary program of Tobunporous'

_symmetry_space_group_name_H-M     'P 1'
_symmetry_Int_Tables_number        1
_symmetry_cell_setting             triclinic

_cell_length_a                    34.2800
_cell_length_b                    34.2800
_cell_length_c                    34.2800
_cell_angle_alpha                 90.0000
_cell_angle_beta                  90.0000
_cell_angle_gamma                 90.0000

loop_
_atom_site_label
_atom_site_fract_x
_atom_site_fract_y
_atom_site_fract_z
_atom_site_occupancy
O1       0.75000    0.75000    0.75000   1.00
Zn1      0.71720    0.78280    0.78280   1.00
Zn1      0.78280    0.71720    0.78280   1.00
Zn1      0.78280    0.78280    0.71720   1.00
Zn1      0.71720    0.71720    0.71720   1.00
O2       0.72650    0.77350    0.83820   1.00
O2       0.72650    0.83820    0.77350   1.00
O2       0.66180    0.77350    0.77350   1.00
O2       0.77350    0.72650    0.83820   1.00
O2       0.83820    0.72650    0.77350   1.00
O2       0.77350    0.66180    0.77350   1.00
O2       0.77350    0.83820    0.72650   1.00
O2       0.83820    0.77350    0.72650   1.00
O2       0.77350    0.77350    0.66180   1.00
O2       0.66180    0.72650    0.72650   1.00
O2       0.72650    0.66180    0.72650   1.00
O2       0.72650    0.72650    0.66180   1.00
C1       0.75000    0.75000    0.85520   1.00
C1       0.75000    0.85520    0.75000   1.00
C1       0.64480    0.75000    0.75000   1.00
C1       0.85520    0.75000    0.75000   1.00
C1       0.75000    0.64480    0.75000   1.00
C1       0.75000    0.75000    0.64480   1.00
O1       0.25000    0.25000    0.75000   1.00
Zn1      0.21720    0.28280    0.78280   1.00
Zn1      0.28280    0.21720    0.78280   1.00
Zn1      0.28280    0.28280    0.71720   1.00
Zn1      0.21720    0.21720    0.71720   1.00
O2       0.22650    0.27350    0.83820   1.00
O2       0.22650    0.33820    0.77350   1.00
O2       0.16180    0.27350    0.77350   1.00
O2       0.27350    0.22650    0.83820   1.00
O2       0.33820    0.22650    0.77350   1.00
O2       0.27350    0.16180    0.77350   1.00
O2       0.27350    0.33820    0.72650   1.00
O2       0.33820    0.27350    0.72650   1.00
O2       0.27350    0.27350    0.66180   1.00
O2       0.16180    0.22650    0.72650   1.00
O2       0.22650    0.16180    0.72650   1.00
O2       0.22650    0.22650    0.66180   1.00
C1       0.25000    0.25000    0.85520   1.00
C1       0.25000    0.35520    0.75000   1.00
C1       0.14480    0.25000    0.75000   1.00
C1       0.35520    0.25000    0.75000   1.00
C1       0.25000    0.14480    0.75000   1.00
C1       0.25000    0.25000    0.64480   1.00
O1       0.25000    0.75000    0.25000   1.00
Zn1      0.21720    0.78280    0.28280   1.00
Zn1      0.28280    0.71720    0.28280   1.00
Zn1      0.28280    0.78280    0.21720   1.00
Zn1      0.21720    0.71720    0.21720   1.00
O2       0.22650    0.77350    0.33820   1.00
O2       0.22650    0.83820    0.27350   1.00
O2       0.16180    0.77350    0.27350   1.00
O2       0.27350    0.72650    0.33820   1.00
O2       0.33820    0.72650    0.27350   1.00
O2       0.27350    0.66180    0.27350   1.00
O2       0.27350    0.83820    0.22650   1.00
O2       0.33820    0.77350    0.22650   1.00
O2       0.27350    0.77350    0.16180   1.00
O2       0.16180    0.72650    0.22650   1.00
O2       0.22650    0.66180    0.22650   1.00
O2       0.22650    0.72650    0.16180   1.00
C1       0.25000    0.75000    0.35520   1.00
C1       0.25000    0.85520    0.25000   1.00
C1       0.14480    0.75000    0.25000   1.00
C1       0.35520    0.75000    0.25000   1.00
C1       0.25000    0.64480    0.25000   1.00
C1       0.25000    0.75000    0.14480   1.00
O1       0.75000    0.25000    0.25000   1.00
Zn1      0.71720    0.28280    0.28280   1.00
Zn1      0.78280    0.21720    0.28280   1.00
Zn1      0.78280    0.28280    0.21720   1.00
Zn1      0.71720    0.21720    0.21720   1.00
O2       0.72650    0.27350    0.33820   1.00
O2       0.72650    0.33820    0.27350   1.00
O2       0.66180    0.27350    0.27350   1.00
O2       0.77350    0.22650    0.33820   1.00
O2       0.83820    0.22650    0.27350   1.00
O2       0.77350    0.16180    0.27350   1.00
O2       0.77350    0.33820    0.22650   1.00
O2       0.83820    0.27350    0.22650   1.00
O2       0.77350    0.27350    0.16180   1.00
O2       0.66180    0.22650    0.22650   1.00
O2       0.72650    0.16180    0.22650   1.00
O2       0.72650    0.22650    0.16180   1.00
C1       0.75000    0.25000    0.35520   1.00
C1       0.75000    0.35520    0.25000   1.00
C1       0.64480    0.25000    0.25000   1.00
C1       0.85520    0.25000    0.25000   1.00
C1       0.75000    0.14480    0.25000   1.00
C1       0.75000    0.25000    0.14480   1.00
O1       0.25000    0.25000    0.25000   1.00
Zn1      0.28280    0.21720    0.21720   1.00
Zn1      0.21720    0.28280    0.21720   1.00
Zn1      0.21720    0.21720    0.28280   1.00
Zn1      0.28280    0.28280    0.28280   1.00
O2       0.27350    0.22650    0.16180   1.00
O2       0.27350    0.16180    0.22650   1.00
O2       0.33820    0.22650    0.22650   1.00
O2       0.22650    0.27350    0.16180   1.00
O2       0.16180    0.27350    0.22650   1.00
O2       0.22650    0.33820    0.22650   1.00
O2       0.22650    0.16180    0.27350   1.00
O2       0.16180    0.22650    0.27350   1.00
O2       0.22650    0.22650    0.33820   1.00
O2       0.33820    0.27350    0.27350   1.00
O2       0.27350    0.33820    0.27350   1.00
O2       0.27350    0.27350    0.33820   1.00
C1       0.25000    0.25000    0.14480   1.00
C1       0.25000    0.14480    0.25000   1.00
C1       0.35520    0.25000    0.25000   1.00
C1       0.14480    0.25000    0.25000   1.00
C1       0.25000    0.35520    0.25000   1.00
C1       0.25000    0.25000    0.35520   1.00
O1       0.75000    0.75000    0.25000   1.00
Zn1      0.78280    0.71720    0.21720   1.00
Zn1      0.71720    0.78280    0.21720   1.00
Zn1      0.71720    0.71720    0.28280   1.00
Zn1      0.78280    0.78280    0.28280   1.00
O2       0.77350    0.72650    0.16180   1.00
O2       0.77350    0.66180    0.22650   1.00
O2       0.83820    0.72650    0.22650   1.00
O2       0.72650    0.77350    0.16180   1.00
O2       0.66180    0.77350    0.22650   1.00
O2       0.72650    0.83820    0.22650   1.00
O2       0.72650    0.66180    0.27350   1.00
O2       0.66180    0.72650    0.27350   1.00
O2       0.72650    0.72650    0.33820   1.00
O2       0.83820    0.77350    0.27350   1.00
O2       0.77350    0.83820    0.27350   1.00
O2       0.77350    0.77350    0.33820   1.00
C1       0.75000    0.75000    0.14480   1.00
C1       0.75000    0.64480    0.25000   1.00
C1       0.85520    0.75000    0.25000   1.00
C1       0.64480    0.75000    0.25000   1.00
C1       0.75000    0.85520    0.25000   1.00
C1       0.75000    0.75000    0.35520   1.00
O1       0.75000    0.25000    0.75000   1.00
Zn1      0.78280    0.21720    0.71720   1.00
Zn1      0.71720    0.28280    0.71720   1.00
Zn1      0.71720    0.21720    0.78280   1.00
Zn1      0.78280    0.28280    0.78280   1.00
O2       0.77350    0.22650    0.66180   1.00
O2       0.77350    0.16180    0.72650   1.00
O2       0.83820    0.22650    0.72650   1.00
O2       0.72650    0.27350    0.66180   1.00
O2       0.66180    0.27350    0.72650   1.00
O2       0.72650    0.33820    0.72650   1.00
O2       0.72650    0.16180    0.77350   1.00
O2       0.66180    0.22650    0.77350   1.00
O2       0.72650    0.22650    0.83820   1.00
O2       0.83820    0.27350    0.77350   1.00
O2       0.77350    0.33820    0.77350   1.00
O2       0.77350    0.27350    0.83820   1.00
C1       0.75000    0.25000    0.64480   1.00
C1       0.75000    0.14480    0.75000   1.00
C1       0.85520    0.25000    0.75000   1.00
C1       0.64480    0.25000    0.75000   1.00
C1       0.75000    0.35520    0.75000   1.00
C1       0.75000    0.25000    0.85520   1.00
O1       0.25000    0.75000    0.75000   1.00
Zn1      0.28280    0.71720    0.71720   1.00
Zn1      0.21720    0.78280    0.71720   1.00
Zn1      0.21720    0.71720    0.78280   1.00
Zn1      0.28280    0.78280    0.78280   1.00
O2       0.27350    0.72650    0.66180   1.00
O2       0.27350    0.66180    0.72650   1.00
O2       0.33820    0.72650    0.72650   1.00
O2       0.22650    0.77350    0.66180   1.00
O2       0.16180    0.77350    0.72650   1.00
O2       0.22650    0.83820    0.72650   1.00
O2       0.22650    0.66180    0.77350   1.00
O2       0.16180    0.72650    0.77350   1.00
O2       0.22650    0.72650    0.83820   1.00
O2       0.33820    0.77350    0.77350   1.00
O2       0.27350    0.83820    0.77350   1.00
O2       0.27350    0.77350    0.83820   1.00
C1       0.25000    0.75000    0.64480   1.00
C1       0.25000    0.64480    0.75000   1.00
C1       0.35520    0.75000    0.75000   1.00
C1       0.14480    0.75000    0.75000   1.00
C1       0.25000    0.85520    0.75000   1.00
C1       0.25000    0.75000    0.85520   1.00
O1       1.00000    1.00000    1.00000   1.00
Zn1      0.96720    1.03280    1.03280   1.00
Zn1      1.03280    0.96720    1.03280   1.00
Zn1      1.03280    1.03280    0.96720   1.00
Zn1      0.96720    0.96720    0.96720   1.00
O2       0.97650    1.02350    1.08820   1.00
O2       0.97650    1.08820    1.02350   1.00
O2       0.91180    1.02350    1.02350   1.00
O2       1.02350    0.97650    1.08820   1.00
O2       1.08820    0.97650    1.02350   1.00
O2       1.02350    0.91180    1.02350   1.00
O2       1.02350    1.08820    0.97650   1.00
O2       1.08820    1.02350    0.97650   1.00
O2       1.02350    1.02350    0.91180   1.00
O2       0.91180    0.97650    0.97650   1.00
O2       0.97650    0.91180    0.97650   1.00
O2       0.97650    0.97650    0.91180   1.00
C1       1.00000    1.00000    1.10520   1.00
C1       1.00000    1.10520    1.00000   1.00
C1       0.89480    1.00000    1.00000   1.00
C1       1.10520    1.00000    1.00000   1.00
C1       1.00000    0.89480    1.00000   1.00
C1       1.00000    1.00000    0.89480   1.00
O1       0.50000    0.50000    1.00000   1.00
Zn1      0.46720    0.53280    1.03280   1.00
Zn1      0.53280    0.46720    1.03280   1.00
Zn1      0.53280    0.53280    0.96720   1.00
Zn1      0.46720    0.46720    0.96720   1.00
O2       0.47650    0.52350    1.08820   1.00
O2       0.47650    0.58820    1.02350   1.00
O2       0.41180    0.52350    1.02350   1.00
O2       0.52350    0.47650    1.08820   1.00
O2       0.58820    0.47650    1.02350   1.00
O2       0.52350    0.41180    1.02350   1.00
O2       0.52350    0.58820    0.97650   1.00
O2       0.58820    0.52350    0.97650   1.00
O2       0.52350    0.52350    0.91180   1.00
O2       0.41180    0.47650    0.97650   1.00
O2       0.47650    0.41180    0.97650   1.00
O2       0.47650    0.47650    0.91180   1.00
C1       0.50000    0.50000    1.10520   1.00
C1       0.50000    0.60520    1.00000   1.00
C1       0.39480    0.50000    1.00000   1.00
C1       0.60520    0.50000    1.00000   1.00
C1       0.50000    0.39480    1.00000   1.00
C1       0.50000    0.50000    0.89480   1.00
O1       0.50000    1.00000    0.50000   1.00
Zn1      0.46720    1.03280    0.53280   1.00
Zn1      0.53280    0.96720    0.53280   1.00
Zn1      0.53280    1.03280    0.46720   1.00
Zn1      0.46720    0.96720    0.46720   1.00
O2       0.47650    1.02350    0.58820   1.00
O2       0.47650    1.08820    0.52350   1.00
O2       0.41180    1.02350    0.52350   1.00
O2       0.52350    0.97650    0.58820   1.00
O2       0.58820    0.97650    0.52350   1.00
O2       0.52350    0.91180    0.52350   1.00
O2       0.52350    1.08820    0.47650   1.00
O2       0.58820    1.02350    0.47650   1.00
O2       0.52350    1.02350    0.41180   1.00
O2       0.41180    0.97650    0.47650   1.00
O2       0.47650    0.91180    0.47650   1.00
O2       0.47650    0.97650    0.41180   1.00
C1       0.50000    1.00000    0.60520   1.00
C1       0.50000    1.10520    0.50000   1.00
C1       0.39480    1.00000    0.50000   1.00
C1       0.60520    1.00000    0.50000   1.00
C1       0.50000    0.89480    0.50000   1.00
C1       0.50000    1.00000    0.39480   1.00
O1       1.00000    0.50000    0.50000   1.00
Zn1      0.96720    0.53280    0.53280   1.00
Zn1      1.03280    0.46720    0.53280   1.00
Zn1      1.03280    0.53280    0.46720   1.00
Zn1      0.96720    0.46720    0.46720   1.00
O2       0.97650    0.52350    0.58820   1.00
O2       0.97650    0.58820    0.52350   1.00
O2       0.91180    0.52350    0.52350   1.00
O2       1.02350    0.47650    0.58820   1.00
O2       1.08820    0.47650    0.52350   1.00
O2       1.02350    0.41180    0.52350   1.00
O2       1.02350    0.58820    0.47650   1.00
O2       1.08820    0.52350    0.47650   1.00
O2       1.02350    0.52350    0.41180   1.00
O2       0.91180    0.47650    0.47650   1.00
O2       0.97650    0.41180    0.47650   1.00
O2       0.97650    0.47650    0.41180   1.00
C1       1.00000    0.50000    0.60520   1.00
C1       1.00000    0.60520    0.50000   1.00
C1       0.89480    0.50000    0.50000   1.00
C1       1.10520    0.50000    0.50000   1.00
C1       1.00000    0.39480    0.50000   1.00
C1       1.00000    0.50000    0.39480   1.00
O1       0.50000    0.50000    0.50000   1.00
Zn1      0.53280    0.46720    0.46720   1.00
Zn1      0.46720    0.53280    0.46720   1.00
Zn1      0.46720    0.46720    0.53280   1.00
Zn1      0.53280    0.53280    0.53280   1.00
O2       0.52350    0.47650    0.41180   1.00
O2       0.52350    0.41180    0.47650   1.00
O2       0.58820    0.47650    0.47650   1.00
O2       0.47650    0.52350    0.41180   1.00
O2       0.41180    0.52350    0.47650   1.00
O2       0.47650    0.58820    0.47650   1.00
O2       0.47650    0.41180    0.52350   1.00
O2       0.41180    0.47650    0.52350   1.00
O2       0.47650    0.47650    0.58820   1.00
O2       0.58820    0.52350    0.52350   1.00
O2       0.52350    0.58820    0.52350   1.00
O2       0.52350    0.52350    0.58820   1.00
C1       0.50000    0.50000    0.39480   1.00
C1       0.50000    0.39480    0.50000   1.00
C1       0.60520    0.50000    0.50000   1.00
C1       0.39480    0.50000    0.50000   1.00
C1       0.50000    0.60520    0.50000   1.00
C1       0.50000    0.50000    0.60520   1.00
O1       1.00000    1.00000    0.50000   1.00
Zn1      1.03280    0.96720    0.46720   1.00
Zn1      0.96720    1.03280    0.46720   1.00
Zn1      0.96720    0.96720    0.53280   1.00
Zn1      1.03280    1.03280    0.53280   1.00
O2       1.02350    0.97650    0.41180   1.00
O2       1.02350    0.91180    0.47650   1.00
O2       1.08820    0.97650    0.47650   1.00
O2       0.97650    1.02350    0.41180   1.00
O2       0.91180    1.02350    0.47650   1.00
O2       0.97650    1.08820    0.47650   1.00
O2       0.97650    0.91180    0.52350   1.00
O2       0.91180    0.97650    0.52350   1.00
O2       0.97650    0.97650    0.58820   1.00
O2       1.08820    1.02350    0.52350   1.00
O2       1.02350    1.08820    0.52350   1.00
O2       1.02350    1.02350    0.58820   1.00
C1       1.00000    1.00000    0.39480   1.00
C1       1.00000    0.89480    0.50000   1.00
C1       1.10520    1.00000    0.50000   1.00
C1       0.89480    1.00000    0.50000   1.00
C1       1.00000    1.10520    0.50000   1.00
C1       1.00000    1.00000    0.60520   1.00
O1       1.00000    0.50000    1.00000   1.00
Zn1      1.03280    0.46720    0.96720   1.00
Zn1      0.96720    0.53280    0.96720   1.00
Zn1      0.96720    0.46720    1.03280   1.00
Zn1      1.03280    0.53280    1.03280   1.00
O2       1.02350    0.47650    0.91180   1.00
O2       1.02350    0.41180    0.97650   1.00
O2       1.08820    0.47650    0.97650   1.00
O2       0.97650    0.52350    0.91180   1.00
O2       0.91180    0.52350    0.97650   1.00
O2       0.97650    0.58820    0.97650   1.00
O2       0.97650    0.41180    1.02350   1.00
O2       0.91180    0.47650    1.02350   1.00
O2       0.97650    0.47650    1.08820   1.00
O2       1.08820    0.52350    1.02350   1.00
O2       1.02350    0.58820    1.02350   1.00
O2       1.02350    0.52350    1.08820   1.00
C1       1.00000    0.50000    0.89480   1.00
C1       1.00000    0.39480    1.00000   1.00
C1       1.10520    0.50000    1.00000   1.00
C1       0.89480    0.50000    1.00000   1.00
C1       1.00000    0.60520    1.00000   1.00
C1       1.00000    0.50000    1.10520   1.00
O1       0.50000    1.00000    1.00000   1.00
Zn1      0.53280    0.96720    0.96720   1.00
Zn1      0.46720    1.03280    0.96720   1.00
Zn1      0.46720    0.96720    1.03280   1.00
Zn1      0.53280    1.03280    1.03280   1.00
O2       0.52350    0.97650    0.91180   1.00
O2       0.52350    0.91180    0.97650   1.00
O2       0.58820    0.97650    0.97650   1.00
O2       0.47650    1.02350    0.91180   1.00
O2       0.41180    1.02350    0.97650   1.00
O2       0.47650    1.08820    0.97650   1.00
O2       0.47650    0.91180    1.02350   1.00
O2       0.41180    0.97650    1.02350   1.00
O2       0.47650    0.97650    1.08820   1.00
O2       0.58820    1.02350    1.02350   1.00
O2       0.52350    1.08820    1.02350   1.00
O2       0.52350    1.02350    1.08820   1.00
C1       0.50000    1.00000    0.89480   1.00
C1       0.50000    0.89480    1.00000   1.00
C1       0.60520    1.00000    1.00000   1.00
C1       0.39480    1.00000    1.00000   1.00
C1       0.50000    1.10520    1.00000   1.00
C1       0.50000    1.00000    1.10520   1.00
C4       0.75460    0.74866    0.98025   1.00
C4       0.75514    0.74721    1.02191   1.00
C3       0.76692    0.78219    0.95897   1.00
C3       0.77180    0.77748    1.04504   1.00
C3       0.74127    0.71560    0.95854   1.00
C3       0.73856    0.71442    1.04170   1.00
C2       0.75534    0.75095    0.89595   1.00
C2       0.75453    0.74521    1.10622   1.00
C3       0.76749    0.78331    0.91811   1.00
C3       0.77137    0.77667    1.08591   1.00
C3       0.74252    0.71784    0.91696   1.00
C3       0.73851    0.71482    1.08336   1.00
H1       0.77558    0.80721    0.97237   1.00
H1       0.78522    0.80107    1.03306   1.00
C5       0.72698    0.68162    0.97835   1.00
C5       0.72282    0.68230    1.01998   1.00
H1       0.77685    0.80831    0.90451   1.00
H1       0.78373    0.79948    1.10091   1.00
H1       0.73353    0.69483    0.90052   1.00
H1       0.72675    0.69216    1.09848   1.00
C6       0.71690    0.64539    0.95515   1.00
C6       0.70168    0.64980    1.04119   1.00
H2       0.73959    0.64031    0.93345   1.00
H2       0.68246    0.66250    1.06310   1.00
H2       0.71900    0.61916    0.97286   1.00
H2       0.68095    0.63501    1.02228   1.00
C6       0.67537    0.64717    0.93606   1.00
C6       0.72994    0.61880    1.05942   1.00
H2       0.67088    0.67589    0.92292   1.00
H2       0.75422    0.63365    1.07383   1.00
C6       0.66522    0.61565    0.90459   1.00
C6       0.71221    0.58894    1.08911   1.00
H2       0.65383    0.64520    0.95949   1.00
H2       0.74315    0.60243    1.03546   1.00
C6       0.69052    0.62044    0.86735   1.00
C6       0.69836    0.60934    1.12708   1.00
C6       0.67025    0.57373    0.92074   1.00
C6       0.67770    0.56598    1.07107   1.00
C6       0.62187    0.62084    0.89245   1.00
C6       0.74438    0.55914    1.10054   1.00
H2       0.68810    0.64996    0.85558   1.00
H2       0.72190    0.62634    1.14020   1.00
H2       0.72121    0.61478    0.87330   1.00
H2       0.67402    0.62900    1.12154   1.00
H2       0.68140    0.60012    0.84459   1.00
H2       0.68857    0.58803    1.14863   1.00
H2       0.66046    0.55206    0.89955   1.00
H2       0.66738    0.54335    1.09098   1.00
H2       0.70078    0.56761    0.92725   1.00
H2       0.65315    0.58525    1.06494   1.00
H2       0.65337    0.56983    0.94745   1.00
H2       0.68646    0.55200    1.04385   1.00
H2       0.61681    0.64991    0.88042   1.00
H2       0.76933    0.57385    1.11383   1.00
H2       0.61345    0.59959    0.87025   1.00
H2       0.73345    0.53778    1.12149   1.00
H2       0.60245    0.61700    0.91739   1.00
H2       0.75482    0.54320    1.07502   1.00
C4       0.74866    0.98025    0.75460   1.00
C4       0.74721    1.02191    0.75514   1.00
C3       0.78219    0.95897    0.76692   1.00
C3       0.77748    1.04504    0.77180   1.00
C3       0.71560    0.95854    0.74127   1.00
C3       0.71442    1.04170    0.73856   1.00
C2       0.75095    0.89595    0.75534   1.00
C2       0.74521    1.10622    0.75453   1.00
C3       0.78331    0.91811    0.76749   1.00
C3       0.77667    1.08591    0.77137   1.00
C3       0.71784    0.91696    0.74252   1.00
C3       0.71482    1.08336    0.73851   1.00
H1       0.80721    0.97237    0.77558   1.00
H1       0.80107    1.03306    0.78522   1.00
C5       0.68162    0.97835    0.72698   1.00
C5       0.68230    1.01998    0.72282   1.00
H1       0.80831    0.90451    0.77685   1.00
H1       0.79948    1.10091    0.78373   1.00
H1       0.69483    0.90052    0.73353   1.00
H1       0.69216    1.09848    0.72675   1.00
C6       0.64539    0.95515    0.71690   1.00
C6       0.64980    1.04119    0.70168   1.00
H2       0.64031    0.93345    0.73959   1.00
H2       0.66250    1.06310    0.68246   1.00
H2       0.61916    0.97286    0.71900   1.00
H2       0.63501    1.02228    0.68095   1.00
C6       0.64717    0.93606    0.67537   1.00
C6       0.61880    1.05942    0.72994   1.00
H2       0.67589    0.92292    0.67088   1.00
H2       0.63365    1.07383    0.75422   1.00
C6       0.61565    0.90459    0.66522   1.00
C6       0.58894    1.08911    0.71221   1.00
H2       0.64520    0.95949    0.65383   1.00
H2       0.60243    1.03546    0.74315   1.00
C6       0.62044    0.86735    0.69052   1.00
C6       0.60934    1.12708    0.69836   1.00
C6       0.57373    0.92074    0.67025   1.00
C6       0.56598    1.07107    0.67770   1.00
C6       0.62084    0.89245    0.62187   1.00
C6       0.55914    1.10054    0.74438   1.00
H2       0.64996    0.85558    0.68810   1.00
H2       0.62634    1.14020    0.72190   1.00
H2       0.61478    0.87330    0.72121   1.00
H2       0.62900    1.12154    0.67402   1.00
H2       0.60012    0.84459    0.68140   1.00
H2       0.58803    1.14863    0.68857   1.00
H2       0.55206    0.89955    0.66046   1.00
H2       0.54335    1.09098    0.66738   1.00
H2       0.56761    0.92725    0.70078   1.00
H2       0.58525    1.06494    0.65315   1.00
H2       0.56983    0.94745    0.65337   1.00
H2       0.55200    1.04385    0.68646   1.00
H2       0.64991    0.88042    0.61681   1.00
H2       0.57385    1.11383    0.76933   1.00
H2       0.59959    0.87025    0.61345   1.00
H2       0.53778    1.12149    0.73345   1.00
H2       0.61700    0.91739    0.60245   1.00
H2       0.54320    1.07502    0.75482   1.00
C4       0.51975    0.75460    0.75134   1.00
C4       0.47809    0.75514    0.75279   1.00
C3       0.54103    0.76692    0.71781   1.00
C3       0.45496    0.77180    0.72252   1.00
C3       0.54146    0.74127    0.78440   1.00
C3       0.45830    0.73856    0.78558   1.00
C2       0.60405    0.75534    0.74905   1.00
C2       0.39378    0.75453    0.75479   1.00
C3       0.58189    0.76749    0.71669   1.00
C3       0.41409    0.77137    0.72333   1.00
C3       0.58304    0.74252    0.78216   1.00
C3       0.41664    0.73851    0.78518   1.00
H1       0.52763    0.77558    0.69279   1.00
H1       0.46694    0.78522    0.69893   1.00
C5       0.52165    0.72698    0.81838   1.00
C5       0.48002    0.72282    0.81770   1.00
H1       0.59549    0.77685    0.69169   1.00
H1       0.39909    0.78373    0.70052   1.00
H1       0.59948    0.73353    0.80517   1.00
H1       0.40152    0.72675    0.80784   1.00
C6       0.54485    0.71690    0.85461   1.00
C6       0.45881    0.70168    0.85020   1.00
H2       0.56655    0.73959    0.85969   1.00
H2       0.43690    0.68246    0.83750   1.00
H2       0.52714    0.71900    0.88084   1.00
H2       0.47772    0.68095    0.86499   1.00
C6       0.56394    0.67537    0.85283   1.00
C6       0.44058    0.72994    0.88120   1.00
H2       0.57708    0.67088    0.82411   1.00
H2       0.42617    0.75422    0.86635   1.00
C6       0.59541    0.66522    0.88435   1.00
C6       0.41089    0.71221    0.91106   1.00
H2       0.54051    0.65383    0.85480   1.00
H2       0.46454    0.74315    0.89757   1.00
C6       0.63265    0.69052    0.87956   1.00
C6       0.37292    0.69836    0.89066   1.00
C6       0.57926    0.67025    0.92627   1.00
C6       0.42893    0.67770    0.93402   1.00
C6       0.60755    0.62187    0.87916   1.00
C6       0.39946    0.74438    0.94086   1.00
H2       0.64442    0.68810    0.85004   1.00
H2       0.35980    0.72190    0.87366   1.00
H2       0.62670    0.72121    0.88522   1.00
H2       0.37846    0.67402    0.87100   1.00
H2       0.65541    0.68140    0.89988   1.00
H2       0.35137    0.68857    0.91197   1.00
H2       0.60045    0.66046    0.94794   1.00
H2       0.40902    0.66738    0.95665   1.00
H2       0.57275    0.70078    0.93239   1.00
H2       0.43506    0.65315    0.91475   1.00
H2       0.55255    0.65337    0.93017   1.00
H2       0.45615    0.68646    0.94800   1.00
H2       0.61958    0.61681    0.85009   1.00
H2       0.38617    0.76933    0.92615   1.00
H2       0.62975    0.61345    0.90041   1.00
H2       0.37851    0.73345    0.96222   1.00
H2       0.58261    0.60245    0.88300   1.00
H2       0.42498    0.75482    0.95680   1.00
C4       0.98025    0.75460    0.74866   1.00
C4       1.02191    0.75514    0.74721   1.00
C3       0.95897    0.76692    0.78219   1.00
C3       1.04504    0.77180    0.77748   1.00
C3       0.95854    0.74127    0.71560   1.00
C3       1.04170    0.73856    0.71442   1.00
C2       0.89595    0.75534    0.75095   1.00
C2       1.10622    0.75453    0.74521   1.00
C3       0.91811    0.76749    0.78331   1.00
C3       1.08591    0.77137    0.77667   1.00
C3       0.91696    0.74252    0.71784   1.00
C3       1.08336    0.73851    0.71482   1.00
H1       0.97237    0.77558    0.80721   1.00
H1       1.03306    0.78522    0.80107   1.00
C5       0.97835    0.72698    0.68162   1.00
C5       1.01998    0.72282    0.68230   1.00
H1       0.90451    0.77685    0.80831   1.00
H1       1.10091    0.78373    0.79948   1.00
H1       0.90052    0.73353    0.69483   1.00
H1       1.09848    0.72675    0.69216   1.00
C6       0.95515    0.71690    0.64539   1.00
C6       1.04119    0.70168    0.64980   1.00
H2       0.93345    0.73959    0.64031   1.00
H2       1.06310    0.68246    0.66250   1.00
H2       0.97286    0.71900    0.61916   1.00
H2       1.02228    0.68095    0.63501   1.00
C6       0.93606    0.67537    0.64717   1.00
C6       1.05942    0.72994    0.61880   1.00
H2       0.92292    0.67088    0.67589   1.00
H2       1.07383    0.75422    0.63365   1.00
C6       0.90459    0.66522    0.61565   1.00
C6       1.08911    0.71221    0.58894   1.00
H2       0.95949    0.65383    0.64520   1.00
H2       1.03546    0.74315    0.60243   1.00
C6       0.86735    0.69052    0.62044   1.00
C6       1.12708    0.69836    0.60934   1.00
C6       0.92074    0.67025    0.57373   1.00
C6       1.07107    0.67770    0.56598   1.00
C6       0.89245    0.62187    0.62084   1.00
C6       1.10054    0.74438    0.55914   1.00
H2       0.85558    0.68810    0.64996   1.00
H2       1.14020    0.72190    0.62634   1.00
H2       0.87330    0.72121    0.61478   1.00
H2       1.12154    0.67402    0.62900   1.00
H2       0.84459    0.68140    0.60012   1.00
H2       1.14863    0.68857    0.58803   1.00
H2       0.89955    0.66046    0.55206   1.00
H2       1.09098    0.66738    0.54335   1.00
H2       0.92725    0.70078    0.56761   1.00
H2       1.06494    0.65315    0.58525   1.00
H2       0.94745    0.65337    0.56983   1.00
H2       1.04385    0.68646    0.55200   1.00
H2       0.88042    0.61681    0.64991   1.00
H2       1.11383    0.76933    0.57385   1.00
H2       0.87025    0.61345    0.59959   1.00
H2       1.12149    0.73345    0.53778   1.00
H2       0.91739    0.60245    0.61700   1.00
H2       1.07502    0.75482    0.54320   1.00
C4       0.75134    0.51975    0.75460   1.00
C4       0.75279    0.47809    0.75514   1.00
C3       0.71781    0.54103    0.76692   1.00
C3       0.72252    0.45496    0.77180   1.00
C3       0.78440    0.54146    0.74127   1.00
C3       0.78558    0.45830    0.73856   1.00
C2       0.74905    0.60405    0.75534   1.00
C2       0.75479    0.39378    0.75453   1.00
C3       0.71669    0.58189    0.76749   1.00
C3       0.72333    0.41409    0.77137   1.00
C3       0.78216    0.58304    0.74252   1.00
C3       0.78518    0.41664    0.73851   1.00
H1       0.69279    0.52763    0.77558   1.00
H1       0.69893    0.46694    0.78522   1.00
C5       0.81838    0.52165    0.72698   1.00
C5       0.81770    0.48002    0.72282   1.00
H1       0.69169    0.59549    0.77685   1.00
H1       0.70052    0.39909    0.78373   1.00
H1       0.80517    0.59948    0.73353   1.00
H1       0.80784    0.40152    0.72675   1.00
C6       0.85461    0.54485    0.71690   1.00
C6       0.85020    0.45881    0.70168   1.00
H2       0.85969    0.56655    0.73959   1.00
H2       0.83750    0.43690    0.68246   1.00
H2       0.88084    0.52714    0.71900   1.00
H2       0.86499    0.47772    0.68095   1.00
C6       0.85283    0.56394    0.67537   1.00
C6       0.88120    0.44058    0.72994   1.00
H2       0.82411    0.57708    0.67088   1.00
H2       0.86635    0.42617    0.75422   1.00
C6       0.88435    0.59541    0.66522   1.00
C6       0.91106    0.41089    0.71221   1.00
H2       0.85480    0.54051    0.65383   1.00
H2       0.89757    0.46454    0.74315   1.00
C6       0.87956    0.63265    0.69052   1.00
C6       0.89066    0.37292    0.69836   1.00
C6       0.92627    0.57926    0.67025   1.00
C6       0.93402    0.42893    0.67770   1.00
C6       0.87916    0.60755    0.62187   1.00
C6       0.94086    0.39946    0.74438   1.00
H2       0.85004    0.64442    0.68810   1.00
H2       0.87366    0.35980    0.72190   1.00
H2       0.88522    0.62670    0.72121   1.00
H2       0.87100    0.37846    0.67402   1.00
H2       0.89988    0.65541    0.68140   1.00
H2       0.91197    0.35137    0.68857   1.00
H2       0.94794    0.60045    0.66046   1.00
H2       0.95665    0.40902    0.66738   1.00
H2       0.93239    0.57275    0.70078   1.00
H2       0.91475    0.43506    0.65315   1.00
H2       0.93017    0.55255    0.65337   1.00
H2       0.94800    0.45615    0.68646   1.00
H2       0.85009    0.61958    0.61681   1.00
H2       0.92615    0.38617    0.76933   1.00
H2       0.90041    0.62975    0.61345   1.00
H2       0.96222    0.37851    0.73345   1.00
H2       0.88300    0.58261    0.60245   1.00
H2       0.95680    0.42498    0.75482   1.00
C4       0.75460    0.75134    0.51975   1.00
C4       0.75514    0.75279    0.47809   1.00
C3       0.76692    0.71781    0.54103   1.00
C3       0.77180    0.72252    0.45496   1.00
C3       0.74127    0.78440    0.54146   1.00
C3       0.73856    0.78558    0.45830   1.00
C2       0.75534    0.74905    0.60405   1.00
C2       0.75453    0.75479    0.39378   1.00
C3       0.76749    0.71669    0.58189   1.00
C3       0.77137    0.72333    0.41409   1.00
C3       0.74252    0.78216    0.58304   1.00
C3       0.73851    0.78518    0.41664   1.00
H1       0.77558    0.69279    0.52763   1.00
H1       0.78522    0.69893    0.46694   1.00
C5       0.72698    0.81838    0.52165   1.00
C5       0.72282    0.81770    0.48002   1.00
H1       0.77685    0.69169    0.59549   1.00
H1       0.78373    0.70052    0.39909   1.00
H1       0.73353    0.80517    0.59948   1.00
H1       0.72675    0.80784    0.40152   1.00
C6       0.71690    0.85461    0.54485   1.00
C6       0.70168    0.85020    0.45881   1.00
H2       0.73959    0.85969    0.56655   1.00
H2       0.68246    0.83750    0.43690   1.00
H2       0.71900    0.88084    0.52714   1.00
H2       0.68095    0.86499    0.47772   1.00
C6       0.67537    0.85283    0.56394   1.00
C6       0.72994    0.88120    0.44058   1.00
H2       0.67088    0.82411    0.57708   1.00
H2       0.75422    0.86635    0.42617   1.00
C6       0.66522    0.88435    0.59541   1.00
C6       0.71221    0.91106    0.41089   1.00
H2       0.65383    0.85480    0.54051   1.00
H2       0.74315    0.89757    0.46454   1.00
C6       0.69052    0.87956    0.63265   1.00
C6       0.69836    0.89066    0.37292   1.00
C6       0.67025    0.92627    0.57926   1.00
C6       0.67770    0.93402    0.42893   1.00
C6       0.62187    0.87916    0.60755   1.00
C6       0.74438    0.94086    0.39946   1.00
H2       0.68810    0.85004    0.64442   1.00
H2       0.72190    0.87366    0.35980   1.00
H2       0.72121    0.88522    0.62670   1.00
H2       0.67402    0.87100    0.37846   1.00
H2       0.68140    0.89988    0.65541   1.00
H2       0.68857    0.91197    0.35137   1.00
H2       0.66046    0.94794    0.60045   1.00
H2       0.66738    0.95665    0.40902   1.00
H2       0.70078    0.93239    0.57275   1.00
H2       0.65315    0.91475    0.43506   1.00
H2       0.65337    0.93017    0.55255   1.00
H2       0.68646    0.94800    0.45615   1.00
H2       0.61681    0.85009    0.61958   1.00
H2       0.76933    0.92615    0.38617   1.00
H2       0.61345    0.90041    0.62975   1.00
H2       0.73345    0.96222    0.37851   1.00
H2       0.60245    0.88300    0.58261   1.00
H2       0.75482    0.95680    0.42498   1.00
C4       0.25460    0.24866    0.98025   1.00
C4       0.25514    0.24721    1.02191   1.00
C3       0.26692    0.28219    0.95897   1.00
C3       0.27180    0.27748    1.04504   1.00
C3       0.24127    0.21560    0.95854   1.00
C3       0.23856    0.21442    1.04170   1.00
C2       0.25534    0.25095    0.89595   1.00
C2       0.25453    0.24521    1.10622   1.00
C3       0.26749    0.28331    0.91811   1.00
C3       0.27137    0.27667    1.08591   1.00
C3       0.24252    0.21784    0.91696   1.00
C3       0.23851    0.21482    1.08336   1.00
H1       0.27558    0.30721    0.97237   1.00
H1       0.28522    0.30107    1.03306   1.00
C5       0.22698    0.18162    0.97835   1.00
C5       0.22282    0.18230    1.01998   1.00
H1       0.27685    0.30831    0.90451   1.00
H1       0.28373    0.29948    1.10091   1.00
H1       0.23353    0.19483    0.90052   1.00
H1       0.22675    0.19216    1.09848   1.00
C6       0.21690    0.14539    0.95515   1.00
C6       0.20168    0.14980    1.04119   1.00
H2       0.23959    0.14031    0.93345   1.00
H2       0.18246    0.16250    1.06310   1.00
H2       0.21900    0.11916    0.97286   1.00
H2       0.18095    0.13501    1.02228   1.00
C6       0.17537    0.14717    0.93606   1.00
C6       0.22994    0.11880    1.05942   1.00
H2       0.17088    0.17589    0.92292   1.00
H2       0.25422    0.13365    1.07383   1.00
C6       0.16522    0.11565    0.90459   1.00
C6       0.21221    0.08894    1.08911   1.00
H2       0.15383    0.14520    0.95949   1.00
H2       0.24315    0.10243    1.03546   1.00
C6       0.19052    0.12044    0.86735   1.00
C6       0.19836    0.10934    1.12708   1.00
C6       0.17025    0.07373    0.92074   1.00
C6       0.17770    0.06598    1.07107   1.00
C6       0.12187    0.12084    0.89245   1.00
C6       0.24438    0.05914    1.10054   1.00
H2       0.18810    0.14996    0.85558   1.00
H2       0.22190    0.12634    1.14020   1.00
H2       0.22121    0.11478    0.87330   1.00
H2       0.17402    0.12900    1.12154   1.00
H2       0.18140    0.10012    0.84459   1.00
H2       0.18857    0.08803    1.14863   1.00
H2       0.16046    0.05206    0.89955   1.00
H2       0.16738    0.04335    1.09098   1.00
H2       0.20078    0.06761    0.92725   1.00
H2       0.15315    0.08525    1.06494   1.00
H2       0.15337    0.06983    0.94745   1.00
H2       0.18646    0.05200    1.04385   1.00
H2       0.11681    0.14991    0.88042   1.00
H2       0.26933    0.07385    1.11383   1.00
H2       0.11345    0.09959    0.87025   1.00
H2       0.23345    0.03778    1.12149   1.00
H2       0.10245    0.11700    0.91739   1.00
H2       0.25482    0.04320    1.07502   1.00
C4       0.24866    0.48025    0.75460   1.00
C4       0.24721    0.52191    0.75514   1.00
C3       0.28219    0.45897    0.76692   1.00
C3       0.27748    0.54504    0.77180   1.00
C3       0.21560    0.45854    0.74127   1.00
C3       0.21442    0.54170    0.73856   1.00
C2       0.25095    0.39595    0.75534   1.00
C2       0.24521    0.60622    0.75453   1.00
C3       0.28331    0.41811    0.76749   1.00
C3       0.27667    0.58591    0.77137   1.00
C3       0.21784    0.41696    0.74252   1.00
C3       0.21482    0.58336    0.73851   1.00
H1       0.30721    0.47237    0.77558   1.00
H1       0.30107    0.53306    0.78522   1.00
C5       0.18162    0.47835    0.72698   1.00
C5       0.18230    0.51998    0.72282   1.00
H1       0.30831    0.40451    0.77685   1.00
H1       0.29948    0.60091    0.78373   1.00
H1       0.19483    0.40052    0.73353   1.00
H1       0.19216    0.59848    0.72675   1.00
C6       0.14539    0.45515    0.71690   1.00
C6       0.14980    0.54119    0.70168   1.00
H2       0.14031    0.43345    0.73959   1.00
H2       0.16250    0.56310    0.68246   1.00
H2       0.11916    0.47286    0.71900   1.00
H2       0.13501    0.52228    0.68095   1.00
C6       0.14717    0.43606    0.67537   1.00
C6       0.11880    0.55942    0.72994   1.00
H2       0.17589    0.42292    0.67088   1.00
H2       0.13365    0.57383    0.75422   1.00
C6       0.11565    0.40459    0.66522   1.00
C6       0.08894    0.58911    0.71221   1.00
H2       0.14520    0.45949    0.65383   1.00
H2       0.10243    0.53546    0.74315   1.00
C6       0.12044    0.36735    0.69052   1.00
C6       0.10934    0.62708    0.69836   1.00
C6       0.07373    0.42074    0.67025   1.00
C6       0.06598    0.57107    0.67770   1.00
C6       0.12084    0.39245    0.62187   1.00
C6       0.05914    0.60054    0.74438   1.00
H2       0.14996    0.35558    0.68810   1.00
H2       0.12634    0.64020    0.72190   1.00
H2       0.11478    0.37330    0.72121   1.00
H2       0.12900    0.62154    0.67402   1.00
H2       0.10012    0.34459    0.68140   1.00
H2       0.08803    0.64863    0.68857   1.00
H2       0.05206    0.39955    0.66046   1.00
H2       0.04335    0.59098    0.66738   1.00
H2       0.06761    0.42725    0.70078   1.00
H2       0.08525    0.56494    0.65315   1.00
H2       0.06983    0.44745    0.65337   1.00
H2       0.05200    0.54385    0.68646   1.00
H2       0.14991    0.38042    0.61681   1.00
H2       0.07385    0.61383    0.76933   1.00
H2       0.09959    0.37025    0.61345   1.00
H2       0.03778    0.62149    0.73345   1.00
H2       0.11700    0.41739    0.60245   1.00
H2       0.04320    0.57502    0.75482   1.00
C4       0.01975    0.25460    0.75134   1.00
C4       -0.02191   0.25514    0.75279   1.00
C3       0.04103    0.26692    0.71781   1.00
C3       -0.04504   0.27180    0.72252   1.00
C3       0.04146    0.24127    0.78440   1.00
C3       -0.04170   0.23856    0.78558   1.00
C2       0.10405    0.25534    0.74905   1.00
C2       -0.10622   0.25453    0.75479   1.00
C3       0.08189    0.26749    0.71669   1.00
C3       -0.08591   0.27137    0.72333   1.00
C3       0.08304    0.24252    0.78216   1.00
C3       -0.08336   0.23851    0.78518   1.00
H1       0.02763    0.27558    0.69279   1.00
H1       -0.03306   0.28522    0.69893   1.00
C5       0.02165    0.22698    0.81838   1.00
C5       -0.01998   0.22282    0.81770   1.00
H1       0.09549    0.27685    0.69169   1.00
H1       -0.10091   0.28373    0.70052   1.00
H1       0.09948    0.23353    0.80517   1.00
H1       -0.09848   0.22675    0.80784   1.00
C6       0.04485    0.21690    0.85461   1.00
C6       -0.04119   0.20168    0.85020   1.00
H2       0.06655    0.23959    0.85969   1.00
H2       -0.06310   0.18246    0.83750   1.00
H2       0.02714    0.21900    0.88084   1.00
H2       -0.02228   0.18095    0.86499   1.00
C6       0.06394    0.17537    0.85283   1.00
C6       -0.05942   0.22994    0.88120   1.00
H2       0.07708    0.17088    0.82411   1.00
H2       -0.07383   0.25422    0.86635   1.00
C6       0.09541    0.16522    0.88435   1.00
C6       -0.08911   0.21221    0.91106   1.00
H2       0.04051    0.15383    0.85480   1.00
H2       -0.03546   0.24315    0.89757   1.00
C6       0.13265    0.19052    0.87956   1.00
C6       -0.12708   0.19836    0.89066   1.00
C6       0.07926    0.17025    0.92627   1.00
C6       -0.07107   0.17770    0.93402   1.00
C6       0.10755    0.12187    0.87916   1.00
C6       -0.10054   0.24438    0.94086   1.00
H2       0.14442    0.18810    0.85004   1.00
H2       -0.14020   0.22190    0.87366   1.00
H2       0.12670    0.22121    0.88522   1.00
H2       -0.12154   0.17402    0.87100   1.00
H2       0.15541    0.18140    0.89988   1.00
H2       -0.14863   0.18857    0.91197   1.00
H2       0.10045    0.16046    0.94794   1.00
H2       -0.09098   0.16738    0.95665   1.00
H2       0.07275    0.20078    0.93239   1.00
H2       -0.06494   0.15315    0.91475   1.00
H2       0.05255    0.15337    0.93017   1.00
H2       -0.04385   0.18646    0.94800   1.00
H2       0.11958    0.11681    0.85009   1.00
H2       -0.11383   0.26933    0.92615   1.00
H2       0.12975    0.11345    0.90041   1.00
H2       -0.12149   0.23345    0.96222   1.00
H2       0.08261    0.10245    0.88300   1.00
H2       -0.07502   0.25482    0.95680   1.00
C4       0.48025    0.25460    0.74866   1.00
C4       0.52191    0.25514    0.74721   1.00
C3       0.45897    0.26692    0.78219   1.00
C3       0.54504    0.27180    0.77748   1.00
C3       0.45854    0.24127    0.71560   1.00
C3       0.54170    0.23856    0.71442   1.00
C2       0.39595    0.25534    0.75095   1.00
C2       0.60622    0.25453    0.74521   1.00
C3       0.41811    0.26749    0.78331   1.00
C3       0.58591    0.27137    0.77667   1.00
C3       0.41696    0.24252    0.71784   1.00
C3       0.58336    0.23851    0.71482   1.00
H1       0.47237    0.27558    0.80721   1.00
H1       0.53306    0.28522    0.80107   1.00
C5       0.47835    0.22698    0.68162   1.00
C5       0.51998    0.22282    0.68230   1.00
H1       0.40451    0.27685    0.80831   1.00
H1       0.60091    0.28373    0.79948   1.00
H1       0.40052    0.23353    0.69483   1.00
H1       0.59848    0.22675    0.69216   1.00
C6       0.45515    0.21690    0.64539   1.00
C6       0.54119    0.20168    0.64980   1.00
H2       0.43345    0.23959    0.64031   1.00
H2       0.56310    0.18246    0.66250   1.00
H2       0.47286    0.21900    0.61916   1.00
H2       0.52228    0.18095    0.63501   1.00
C6       0.43606    0.17537    0.64717   1.00
C6       0.55942    0.22994    0.61880   1.00
H2       0.42292    0.17088    0.67589   1.00
H2       0.57383    0.25422    0.63365   1.00
C6       0.40459    0.16522    0.61565   1.00
C6       0.58911    0.21221    0.58894   1.00
H2       0.45949    0.15383    0.64520   1.00
H2       0.53546    0.24315    0.60243   1.00
C6       0.36735    0.19052    0.62044   1.00
C6       0.62708    0.19836    0.60934   1.00
C6       0.42074    0.17025    0.57373   1.00
C6       0.57107    0.17770    0.56598   1.00
C6       0.39245    0.12187    0.62084   1.00
C6       0.60054    0.24438    0.55914   1.00
H2       0.35558    0.18810    0.64996   1.00
H2       0.64020    0.22190    0.62634   1.00
H2       0.37330    0.22121    0.61478   1.00
H2       0.62154    0.17402    0.62900   1.00
H2       0.34459    0.18140    0.60012   1.00
H2       0.64863    0.18857    0.58803   1.00
H2       0.39955    0.16046    0.55206   1.00
H2       0.59098    0.16738    0.54335   1.00
H2       0.42725    0.20078    0.56761   1.00
H2       0.56494    0.15315    0.58525   1.00
H2       0.44745    0.15337    0.56983   1.00
H2       0.54385    0.18646    0.55200   1.00
H2       0.38042    0.11681    0.64991   1.00
H2       0.61383    0.26933    0.57385   1.00
H2       0.37025    0.11345    0.59959   1.00
H2       0.62149    0.23345    0.53778   1.00
H2       0.41739    0.10245    0.61700   1.00
H2       0.57502    0.25482    0.54320   1.00
C4       0.25134    0.01975    0.75460   1.00
C4       0.25279    -0.02191   0.75514   1.00
C3       0.21781    0.04103    0.76692   1.00
C3       0.22252    -0.04504   0.77180   1.00
C3       0.28440    0.04146    0.74127   1.00
C3       0.28558    -0.04170   0.73856   1.00
C2       0.24905    0.10405    0.75534   1.00
C2       0.25479    -0.10622   0.75453   1.00
C3       0.21669    0.08189    0.76749   1.00
C3       0.22333    -0.08591   0.77137   1.00
C3       0.28216    0.08304    0.74252   1.00
C3       0.28518    -0.08336   0.73851   1.00
H1       0.19279    0.02763    0.77558   1.00
H1       0.19893    -0.03306   0.78522   1.00
C5       0.31838    0.02165    0.72698   1.00
C5       0.31770    -0.01998   0.72282   1.00
H1       0.19169    0.09549    0.77685   1.00
H1       0.20052    -0.10091   0.78373   1.00
H1       0.30517    0.09948    0.73353   1.00
H1       0.30784    -0.09848   0.72675   1.00
C6       0.35461    0.04485    0.71690   1.00
C6       0.35020    -0.04119   0.70168   1.00
H2       0.35969    0.06655    0.73959   1.00
H2       0.33750    -0.06310   0.68246   1.00
H2       0.38084    0.02714    0.71900   1.00
H2       0.36499    -0.02228   0.68095   1.00
C6       0.35283    0.06394    0.67537   1.00
C6       0.38120    -0.05942   0.72994   1.00
H2       0.32411    0.07708    0.67088   1.00
H2       0.36635    -0.07383   0.75422   1.00
C6       0.38435    0.09541    0.66522   1.00
C6       0.41106    -0.08911   0.71221   1.00
H2       0.35480    0.04051    0.65383   1.00
H2       0.39757    -0.03546   0.74315   1.00
C6       0.37956    0.13265    0.69052   1.00
C6       0.39066    -0.12708   0.69836   1.00
C6       0.42627    0.07926    0.67025   1.00
C6       0.43402    -0.07107   0.67770   1.00
C6       0.37916    0.10755    0.62187   1.00
C6       0.44086    -0.10054   0.74438   1.00
H2       0.35004    0.14442    0.68810   1.00
H2       0.37366    -0.14020   0.72190   1.00
H2       0.38522    0.12670    0.72121   1.00
H2       0.37100    -0.12154   0.67402   1.00
H2       0.39988    0.15541    0.68140   1.00
H2       0.41197    -0.14863   0.68857   1.00
H2       0.44794    0.10045    0.66046   1.00
H2       0.45665    -0.09098   0.66738   1.00
H2       0.43239    0.07275    0.70078   1.00
H2       0.41475    -0.06494   0.65315   1.00
H2       0.43017    0.05255    0.65337   1.00
H2       0.44800    -0.04385   0.68646   1.00
H2       0.35009    0.11958    0.61681   1.00
H2       0.42615    -0.11383   0.76933   1.00
H2       0.40041    0.12975    0.61345   1.00
H2       0.46222    -0.12149   0.73345   1.00
H2       0.38300    0.08261    0.60245   1.00
H2       0.45680    -0.07502   0.75482   1.00
C4       0.25460    0.25134    0.51975   1.00
C4       0.25514    0.25279    0.47809   1.00
C3       0.26692    0.21781    0.54103   1.00
C3       0.27180    0.22252    0.45496   1.00
C3       0.24127    0.28440    0.54146   1.00
C3       0.23856    0.28558    0.45830   1.00
C2       0.25534    0.24905    0.60405   1.00
C2       0.25453    0.25479    0.39378   1.00
C3       0.26749    0.21669    0.58189   1.00
C3       0.27137    0.22333    0.41409   1.00
C3       0.24252    0.28216    0.58304   1.00
C3       0.23851    0.28518    0.41664   1.00
H1       0.27558    0.19279    0.52763   1.00
H1       0.28522    0.19893    0.46694   1.00
C5       0.22698    0.31838    0.52165   1.00
C5       0.22282    0.31770    0.48002   1.00
H1       0.27685    0.19169    0.59549   1.00
H1       0.28373    0.20052    0.39909   1.00
H1       0.23353    0.30517    0.59948   1.00
H1       0.22675    0.30784    0.40152   1.00
C6       0.21690    0.35461    0.54485   1.00
C6       0.20168    0.35020    0.45881   1.00
H2       0.23959    0.35969    0.56655   1.00
H2       0.18246    0.33750    0.43690   1.00
H2       0.21900    0.38084    0.52714   1.00
H2       0.18095    0.36499    0.47772   1.00
C6       0.17537    0.35283    0.56394   1.00
C6       0.22994    0.38120    0.44058   1.00
H2       0.17088    0.32411    0.57708   1.00
H2       0.25422    0.36635    0.42617   1.00
C6       0.16522    0.38435    0.59541   1.00
C6       0.21221    0.41106    0.41089   1.00
H2       0.15383    0.35480    0.54051   1.00
H2       0.24315    0.39757    0.46454   1.00
C6       0.19052    0.37956    0.63265   1.00
C6       0.19836    0.39066    0.37292   1.00
C6       0.17025    0.42627    0.57926   1.00
C6       0.17770    0.43402    0.42893   1.00
C6       0.12187    0.37916    0.60755   1.00
C6       0.24438    0.44086    0.39946   1.00
H2       0.18810    0.35004    0.64442   1.00
H2       0.22190    0.37366    0.35980   1.00
H2       0.22121    0.38522    0.62670   1.00
H2       0.17402    0.37100    0.37846   1.00
H2       0.18140    0.39988    0.65541   1.00
H2       0.18857    0.41197    0.35137   1.00
H2       0.16046    0.44794    0.60045   1.00
H2       0.16738    0.45665    0.40902   1.00
H2       0.20078    0.43239    0.57275   1.00
H2       0.15315    0.41475    0.43506   1.00
H2       0.15337    0.43017    0.55255   1.00
H2       0.18646    0.44800    0.45615   1.00
H2       0.11681    0.35009    0.61958   1.00
H2       0.26933    0.42615    0.38617   1.00
H2       0.11345    0.40041    0.62975   1.00
H2       0.23345    0.46222    0.37851   1.00
H2       0.10245    0.38300    0.58261   1.00
H2       0.25482    0.45680    0.42498   1.00
C4       0.25460    0.74866    0.48025   1.00
C4       0.25514    0.74721    0.52191   1.00
C3       0.26692    0.78219    0.45897   1.00
C3       0.27180    0.77748    0.54504   1.00
C3       0.24127    0.71560    0.45854   1.00
C3       0.23856    0.71442    0.54170   1.00
C2       0.25534    0.75095    0.39595   1.00
C2       0.25453    0.74521    0.60622   1.00
C3       0.26749    0.78331    0.41811   1.00
C3       0.27137    0.77667    0.58591   1.00
C3       0.24252    0.71784    0.41696   1.00
C3       0.23851    0.71482    0.58336   1.00
H1       0.27558    0.80721    0.47237   1.00
H1       0.28522    0.80107    0.53306   1.00
C5       0.22698    0.68162    0.47835   1.00
C5       0.22282    0.68230    0.51998   1.00
H1       0.27685    0.80831    0.40451   1.00
H1       0.28373    0.79948    0.60091   1.00
H1       0.23353    0.69483    0.40052   1.00
H1       0.22675    0.69216    0.59848   1.00
C6       0.21690    0.64539    0.45515   1.00
C6       0.20168    0.64980    0.54119   1.00
H2       0.23959    0.64031    0.43345   1.00
H2       0.18246    0.66250    0.56310   1.00
H2       0.21900    0.61916    0.47286   1.00
H2       0.18095    0.63501    0.52228   1.00
C6       0.17537    0.64717    0.43606   1.00
C6       0.22994    0.61880    0.55942   1.00
H2       0.17088    0.67589    0.42292   1.00
H2       0.25422    0.63365    0.57383   1.00
C6       0.16522    0.61565    0.40459   1.00
C6       0.21221    0.58894    0.58911   1.00
H2       0.15383    0.64520    0.45949   1.00
H2       0.24315    0.60243    0.53546   1.00
C6       0.19052    0.62044    0.36735   1.00
C6       0.19836    0.60934    0.62708   1.00
C6       0.17025    0.57373    0.42074   1.00
C6       0.17770    0.56598    0.57107   1.00
C6       0.12187    0.62084    0.39245   1.00
C6       0.24438    0.55914    0.60054   1.00
H2       0.18810    0.64996    0.35558   1.00
H2       0.22190    0.62634    0.64020   1.00
H2       0.22121    0.61478    0.37330   1.00
H2       0.17402    0.62900    0.62154   1.00
H2       0.18140    0.60012    0.34459   1.00
H2       0.18857    0.58803    0.64863   1.00
H2       0.16046    0.55206    0.39955   1.00
H2       0.16738    0.54335    0.59098   1.00
H2       0.20078    0.56761    0.42725   1.00
H2       0.15315    0.58525    0.56494   1.00
H2       0.15337    0.56983    0.44745   1.00
H2       0.18646    0.55200    0.54385   1.00
H2       0.11681    0.64991    0.38042   1.00
H2       0.26933    0.57385    0.61383   1.00
H2       0.11345    0.59959    0.37025   1.00
H2       0.23345    0.53778    0.62149   1.00
H2       0.10245    0.61700    0.41739   1.00
H2       0.25482    0.54320    0.57502   1.00
C4       0.24866    0.98025    0.25460   1.00
C4       0.24721    1.02191    0.25514   1.00
C3       0.28219    0.95897    0.26692   1.00
C3       0.27748    1.04504    0.27180   1.00
C3       0.21560    0.95854    0.24127   1.00
C3       0.21442    1.04170    0.23856   1.00
C2       0.25095    0.89595    0.25534   1.00
C2       0.24521    1.10622    0.25453   1.00
C3       0.28331    0.91811    0.26749   1.00
C3       0.27667    1.08591    0.27137   1.00
C3       0.21784    0.91696    0.24252   1.00
C3       0.21482    1.08336    0.23851   1.00
H1       0.30721    0.97237    0.27558   1.00
H1       0.30107    1.03306    0.28522   1.00
C5       0.18162    0.97835    0.22698   1.00
C5       0.18230    1.01998    0.22282   1.00
H1       0.30831    0.90451    0.27685   1.00
H1       0.29948    1.10091    0.28373   1.00
H1       0.19483    0.90052    0.23353   1.00
H1       0.19216    1.09848    0.22675   1.00
C6       0.14539    0.95515    0.21690   1.00
C6       0.14980    1.04119    0.20168   1.00
H2       0.14031    0.93345    0.23959   1.00
H2       0.16250    1.06310    0.18246   1.00
H2       0.11916    0.97286    0.21900   1.00
H2       0.13501    1.02228    0.18095   1.00
C6       0.14717    0.93606    0.17537   1.00
C6       0.11880    1.05942    0.22994   1.00
H2       0.17589    0.92292    0.17088   1.00
H2       0.13365    1.07383    0.25422   1.00
C6       0.11565    0.90459    0.16522   1.00
C6       0.08894    1.08911    0.21221   1.00
H2       0.14520    0.95949    0.15383   1.00
H2       0.10243    1.03546    0.24315   1.00
C6       0.12044    0.86735    0.19052   1.00
C6       0.10934    1.12708    0.19836   1.00
C6       0.07373    0.92074    0.17025   1.00
C6       0.06598    1.07107    0.17770   1.00
C6       0.12084    0.89245    0.12187   1.00
C6       0.05914    1.10054    0.24438   1.00
H2       0.14996    0.85558    0.18810   1.00
H2       0.12634    1.14020    0.22190   1.00
H2       0.11478    0.87330    0.22121   1.00
H2       0.12900    1.12154    0.17402   1.00
H2       0.10012    0.84459    0.18140   1.00
H2       0.08803    1.14863    0.18857   1.00
H2       0.05206    0.89955    0.16046   1.00
H2       0.04335    1.09098    0.16738   1.00
H2       0.06761    0.92725    0.20078   1.00
H2       0.08525    1.06494    0.15315   1.00
H2       0.06983    0.94745    0.15337   1.00
H2       0.05200    1.04385    0.18646   1.00
H2       0.14991    0.88042    0.11681   1.00
H2       0.07385    1.11383    0.26933   1.00
H2       0.09959    0.87025    0.11345   1.00
H2       0.03778    1.12149    0.23345   1.00
H2       0.11700    0.91739    0.10245   1.00
H2       0.04320    1.07502    0.25482   1.00
C4       0.01975    0.75460    0.25134   1.00
C4       -0.02191   0.75514    0.25279   1.00
C3       0.04103    0.76692    0.21781   1.00
C3       -0.04504   0.77180    0.22252   1.00
C3       0.04146    0.74127    0.28440   1.00
C3       -0.04170   0.73856    0.28558   1.00
C2       0.10405    0.75534    0.24905   1.00
C2       -0.10622   0.75453    0.25479   1.00
C3       0.08189    0.76749    0.21669   1.00
C3       -0.08591   0.77137    0.22333   1.00
C3       0.08304    0.74252    0.28216   1.00
C3       -0.08336   0.73851    0.28518   1.00
H1       0.02763    0.77558    0.19279   1.00
H1       -0.03306   0.78522    0.19893   1.00
C5       0.02165    0.72698    0.31838   1.00
C5       -0.01998   0.72282    0.31770   1.00
H1       0.09549    0.77685    0.19169   1.00
H1       -0.10091   0.78373    0.20052   1.00
H1       0.09948    0.73353    0.30517   1.00
H1       -0.09848   0.72675    0.30784   1.00
C6       0.04485    0.71690    0.35461   1.00
C6       -0.04119   0.70168    0.35020   1.00
H2       0.06655    0.73959    0.35969   1.00
H2       -0.06310   0.68246    0.33750   1.00
H2       0.02714    0.71900    0.38084   1.00
H2       -0.02228   0.68095    0.36499   1.00
C6       0.06394    0.67537    0.35283   1.00
C6       -0.05942   0.72994    0.38120   1.00
H2       0.07708    0.67088    0.32411   1.00
H2       -0.07383   0.75422    0.36635   1.00
C6       0.09541    0.66522    0.38435   1.00
C6       -0.08911   0.71221    0.41106   1.00
H2       0.04051    0.65383    0.35480   1.00
H2       -0.03546   0.74315    0.39757   1.00
C6       0.13265    0.69052    0.37956   1.00
C6       -0.12708   0.69836    0.39066   1.00
C6       0.07926    0.67025    0.42627   1.00
C6       -0.07107   0.67770    0.43402   1.00
C6       0.10755    0.62187    0.37916   1.00
C6       -0.10054   0.74438    0.44086   1.00
H2       0.14442    0.68810    0.35004   1.00
H2       -0.14020   0.72190    0.37366   1.00
H2       0.12670    0.72121    0.38522   1.00
H2       -0.12154   0.67402    0.37100   1.00
H2       0.15541    0.68140    0.39988   1.00
H2       -0.14863   0.68857    0.41197   1.00
H2       0.10045    0.66046    0.44794   1.00
H2       -0.09098   0.66738    0.45665   1.00
H2       0.07275    0.70078    0.43239   1.00
H2       -0.06494   0.65315    0.41475   1.00
H2       0.05255    0.65337    0.43017   1.00
H2       -0.04385   0.68646    0.44800   1.00
H2       0.11958    0.61681    0.35009   1.00
H2       -0.11383   0.76933    0.42615   1.00
H2       0.12975    0.61345    0.40041   1.00
H2       -0.12149   0.73345    0.46222   1.00
H2       0.08261    0.60245    0.38300   1.00
H2       -0.07502   0.75482    0.45680   1.00
C4       0.48025    0.75460    0.24866   1.00
C4       0.52191    0.75514    0.24721   1.00
C3       0.45897    0.76692    0.28219   1.00
C3       0.54504    0.77180    0.27748   1.00
C3       0.45854    0.74127    0.21560   1.00
C3       0.54170    0.73856    0.21442   1.00
C2       0.39595    0.75534    0.25095   1.00
C2       0.60622    0.75453    0.24521   1.00
C3       0.41811    0.76749    0.28331   1.00
C3       0.58591    0.77137    0.27667   1.00
C3       0.41696    0.74252    0.21784   1.00
C3       0.58336    0.73851    0.21482   1.00
H1       0.47237    0.77558    0.30721   1.00
H1       0.53306    0.78522    0.30107   1.00
C5       0.47835    0.72698    0.18162   1.00
C5       0.51998    0.72282    0.18230   1.00
H1       0.40451    0.77685    0.30831   1.00
H1       0.60091    0.78373    0.29948   1.00
H1       0.40052    0.73353    0.19483   1.00
H1       0.59848    0.72675    0.19216   1.00
C6       0.45515    0.71690    0.14539   1.00
C6       0.54119    0.70168    0.14980   1.00
H2       0.43345    0.73959    0.14031   1.00
H2       0.56310    0.68246    0.16250   1.00
H2       0.47286    0.71900    0.11916   1.00
H2       0.52228    0.68095    0.13501   1.00
C6       0.43606    0.67537    0.14717   1.00
C6       0.55942    0.72994    0.11880   1.00
H2       0.42292    0.67088    0.17589   1.00
H2       0.57383    0.75422    0.13365   1.00
C6       0.40459    0.66522    0.11565   1.00
C6       0.58911    0.71221    0.08894   1.00
H2       0.45949    0.65383    0.14520   1.00
H2       0.53546    0.74315    0.10243   1.00
C6       0.36735    0.69052    0.12044   1.00
C6       0.62708    0.69836    0.10934   1.00
C6       0.42074    0.67025    0.07373   1.00
C6       0.57107    0.67770    0.06598   1.00
C6       0.39245    0.62187    0.12084   1.00
C6       0.60054    0.74438    0.05914   1.00
H2       0.35558    0.68810    0.14996   1.00
H2       0.64020    0.72190    0.12634   1.00
H2       0.37330    0.72121    0.11478   1.00
H2       0.62154    0.67402    0.12900   1.00
H2       0.34459    0.68140    0.10012   1.00
H2       0.64863    0.68857    0.08803   1.00
H2       0.39955    0.66046    0.05206   1.00
H2       0.59098    0.66738    0.04335   1.00
H2       0.42725    0.70078    0.06761   1.00
H2       0.56494    0.65315    0.08525   1.00
H2       0.44745    0.65337    0.06983   1.00
H2       0.54385    0.68646    0.05200   1.00
H2       0.38042    0.61681    0.14991   1.00
H2       0.61383    0.76933    0.07385   1.00
H2       0.37025    0.61345    0.09959   1.00
H2       0.62149    0.73345    0.03778   1.00
H2       0.41739    0.60245    0.11700   1.00
H2       0.57502    0.75482    0.04320   1.00
C4       0.25134    0.51975    0.25460   1.00
C4       0.25279    0.47809    0.25514   1.00
C3       0.21781    0.54103    0.26692   1.00
C3       0.22252    0.45496    0.27180   1.00
C3       0.28440    0.54146    0.24127   1.00
C3       0.28558    0.45830    0.23856   1.00
C2       0.24905    0.60405    0.25534   1.00
C2       0.25479    0.39378    0.25453   1.00
C3       0.21669    0.58189    0.26749   1.00
C3       0.22333    0.41409    0.27137   1.00
C3       0.28216    0.58304    0.24252   1.00
C3       0.28518    0.41664    0.23851   1.00
H1       0.19279    0.52763    0.27558   1.00
H1       0.19893    0.46694    0.28522   1.00
C5       0.31838    0.52165    0.22698   1.00
C5       0.31770    0.48002    0.22282   1.00
H1       0.19169    0.59549    0.27685   1.00
H1       0.20052    0.39909    0.28373   1.00
H1       0.30517    0.59948    0.23353   1.00
H1       0.30784    0.40152    0.22675   1.00
C6       0.35461    0.54485    0.21690   1.00
C6       0.35020    0.45881    0.20168   1.00
H2       0.35969    0.56655    0.23959   1.00
H2       0.33750    0.43690    0.18246   1.00
H2       0.38084    0.52714    0.21900   1.00
H2       0.36499    0.47772    0.18095   1.00
C6       0.35283    0.56394    0.17537   1.00
C6       0.38120    0.44058    0.22994   1.00
H2       0.32411    0.57708    0.17088   1.00
H2       0.36635    0.42617    0.25422   1.00
C6       0.38435    0.59541    0.16522   1.00
C6       0.41106    0.41089    0.21221   1.00
H2       0.35480    0.54051    0.15383   1.00
H2       0.39757    0.46454    0.24315   1.00
C6       0.37956    0.63265    0.19052   1.00
C6       0.39066    0.37292    0.19836   1.00
C6       0.42627    0.57926    0.17025   1.00
C6       0.43402    0.42893    0.17770   1.00
C6       0.37916    0.60755    0.12187   1.00
C6       0.44086    0.39946    0.24438   1.00
H2       0.35004    0.64442    0.18810   1.00
H2       0.37366    0.35980    0.22190   1.00
H2       0.38522    0.62670    0.22121   1.00
H2       0.37100    0.37846    0.17402   1.00
H2       0.39988    0.65541    0.18140   1.00
H2       0.41197    0.35137    0.18857   1.00
H2       0.44794    0.60045    0.16046   1.00
H2       0.45665    0.40902    0.16738   1.00
H2       0.43239    0.57275    0.20078   1.00
H2       0.41475    0.43506    0.15315   1.00
H2       0.43017    0.55255    0.15337   1.00
H2       0.44800    0.45615    0.18646   1.00
H2       0.35009    0.61958    0.11681   1.00
H2       0.42615    0.38617    0.26933   1.00
H2       0.40041    0.62975    0.11345   1.00
H2       0.46222    0.37851    0.23345   1.00
H2       0.38300    0.58261    0.10245   1.00
H2       0.45680    0.42498    0.25482   1.00
C4       0.25460    0.75134    0.01975   1.00
C4       0.25514    0.75279    -0.02191   1.00
C3       0.26692    0.71781    0.04103   1.00
C3       0.27180    0.72252    -0.04504   1.00
C3       0.24127    0.78440    0.04146   1.00
C3       0.23856    0.78558    -0.04170   1.00
C2       0.25534    0.74905    0.10405   1.00
C2       0.25453    0.75479    -0.10622   1.00
C3       0.26749    0.71669    0.08189   1.00
C3       0.27137    0.72333    -0.08591   1.00
C3       0.24252    0.78216    0.08304   1.00
C3       0.23851    0.78518    -0.08336   1.00
H1       0.27558    0.69279    0.02763   1.00
H1       0.28522    0.69893    -0.03306   1.00
C5       0.22698    0.81838    0.02165   1.00
C5       0.22282    0.81770    -0.01998   1.00
H1       0.27685    0.69169    0.09549   1.00
H1       0.28373    0.70052    -0.10091   1.00
H1       0.23353    0.80517    0.09948   1.00
H1       0.22675    0.80784    -0.09848   1.00
C6       0.21690    0.85461    0.04485   1.00
C6       0.20168    0.85020    -0.04119   1.00
H2       0.23959    0.85969    0.06655   1.00
H2       0.18246    0.83750    -0.06310   1.00
H2       0.21900    0.88084    0.02714   1.00
H2       0.18095    0.86499    -0.02228   1.00
C6       0.17537    0.85283    0.06394   1.00
C6       0.22994    0.88120    -0.05942   1.00
H2       0.17088    0.82411    0.07708   1.00
H2       0.25422    0.86635    -0.07383   1.00
C6       0.16522    0.88435    0.09541   1.00
C6       0.21221    0.91106    -0.08911   1.00
H2       0.15383    0.85480    0.04051   1.00
H2       0.24315    0.89757    -0.03546   1.00
C6       0.19052    0.87956    0.13265   1.00
C6       0.19836    0.89066    -0.12708   1.00
C6       0.17025    0.92627    0.07926   1.00
C6       0.17770    0.93402    -0.07107   1.00
C6       0.12187    0.87916    0.10755   1.00
C6       0.24438    0.94086    -0.10054   1.00
H2       0.18810    0.85004    0.14442   1.00
H2       0.22190    0.87366    -0.14020   1.00
H2       0.22121    0.88522    0.12670   1.00
H2       0.17402    0.87100    -0.12154   1.00
H2       0.18140    0.89988    0.15541   1.00
H2       0.18857    0.91197    -0.14863   1.00
H2       0.16046    0.94794    0.10045   1.00
H2       0.16738    0.95665    -0.09098   1.00
H2       0.20078    0.93239    0.07275   1.00
H2       0.15315    0.91475    -0.06494   1.00
H2       0.15337    0.93017    0.05255   1.00
H2       0.18646    0.94800    -0.04385   1.00
H2       0.11681    0.85009    0.11958   1.00
H2       0.26933    0.92615    -0.11383   1.00
H2       0.11345    0.90041    0.12975   1.00
H2       0.23345    0.96222    -0.12149   1.00
H2       0.10245    0.88300    0.08261   1.00
H2       0.25482    0.95680    -0.07502   1.00
C4       0.75460    0.24866    0.48025   1.00
C4       0.75514    0.24721    0.52191   1.00
C3       0.76692    0.28219    0.45897   1.00
C3       0.77180    0.27748    0.54504   1.00
C3       0.74127    0.21560    0.45854   1.00
C3       0.73856    0.21442    0.54170   1.00
C2       0.75534    0.25095    0.39595   1.00
C2       0.75453    0.24521    0.60622   1.00
C3       0.76749    0.28331    0.41811   1.00
C3       0.77137    0.27667    0.58591   1.00
C3       0.74252    0.21784    0.41696   1.00
C3       0.73851    0.21482    0.58336   1.00
H1       0.77558    0.30721    0.47237   1.00
H1       0.78522    0.30107    0.53306   1.00
C5       0.72698    0.18162    0.47835   1.00
C5       0.72282    0.18230    0.51998   1.00
H1       0.77685    0.30831    0.40451   1.00
H1       0.78373    0.29948    0.60091   1.00
H1       0.73353    0.19483    0.40052   1.00
H1       0.72675    0.19216    0.59848   1.00
C6       0.71690    0.14539    0.45515   1.00
C6       0.70168    0.14980    0.54119   1.00
H2       0.73959    0.14031    0.43345   1.00
H2       0.68246    0.16250    0.56310   1.00
H2       0.71900    0.11916    0.47286   1.00
H2       0.68095    0.13501    0.52228   1.00
C6       0.67537    0.14717    0.43606   1.00
C6       0.72994    0.11880    0.55942   1.00
H2       0.67088    0.17589    0.42292   1.00
H2       0.75422    0.13365    0.57383   1.00
C6       0.66522    0.11565    0.40459   1.00
C6       0.71221    0.08894    0.58911   1.00
H2       0.65383    0.14520    0.45949   1.00
H2       0.74315    0.10243    0.53546   1.00
C6       0.69052    0.12044    0.36735   1.00
C6       0.69836    0.10934    0.62708   1.00
C6       0.67025    0.07373    0.42074   1.00
C6       0.67770    0.06598    0.57107   1.00
C6       0.62187    0.12084    0.39245   1.00
C6       0.74438    0.05914    0.60054   1.00
H2       0.68810    0.14996    0.35558   1.00
H2       0.72190    0.12634    0.64020   1.00
H2       0.72121    0.11478    0.37330   1.00
H2       0.67402    0.12900    0.62154   1.00
H2       0.68140    0.10012    0.34459   1.00
H2       0.68857    0.08803    0.64863   1.00
H2       0.66046    0.05206    0.39955   1.00
H2       0.66738    0.04335    0.59098   1.00
H2       0.70078    0.06761    0.42725   1.00
H2       0.65315    0.08525    0.56494   1.00
H2       0.65337    0.06983    0.44745   1.00
H2       0.68646    0.05200    0.54385   1.00
H2       0.61681    0.14991    0.38042   1.00
H2       0.76933    0.07385    0.61383   1.00
H2       0.61345    0.09959    0.37025   1.00
H2       0.73345    0.03778    0.62149   1.00
H2       0.60245    0.11700    0.41739   1.00
H2       0.75482    0.04320    0.57502   1.00
C4       0.74866    0.48025    0.25460   1.00
C4       0.74721    0.52191    0.25514   1.00
C3       0.78219    0.45897    0.26692   1.00
C3       0.77748    0.54504    0.27180   1.00
C3       0.71560    0.45854    0.24127   1.00
C3       0.71442    0.54170    0.23856   1.00
C2       0.75095    0.39595    0.25534   1.00
C2       0.74521    0.60622    0.25453   1.00
C3       0.78331    0.41811    0.26749   1.00
C3       0.77667    0.58591    0.27137   1.00
C3       0.71784    0.41696    0.24252   1.00
C3       0.71482    0.58336    0.23851   1.00
H1       0.80721    0.47237    0.27558   1.00
H1       0.80107    0.53306    0.28522   1.00
C5       0.68162    0.47835    0.22698   1.00
C5       0.68230    0.51998    0.22282   1.00
H1       0.80831    0.40451    0.27685   1.00
H1       0.79948    0.60091    0.28373   1.00
H1       0.69483    0.40052    0.23353   1.00
H1       0.69216    0.59848    0.22675   1.00
C6       0.64539    0.45515    0.21690   1.00
C6       0.64980    0.54119    0.20168   1.00
H2       0.64031    0.43345    0.23959   1.00
H2       0.66250    0.56310    0.18246   1.00
H2       0.61916    0.47286    0.21900   1.00
H2       0.63501    0.52228    0.18095   1.00
C6       0.64717    0.43606    0.17537   1.00
C6       0.61880    0.55942    0.22994   1.00
H2       0.67589    0.42292    0.17088   1.00
H2       0.63365    0.57383    0.25422   1.00
C6       0.61565    0.40459    0.16522   1.00
C6       0.58894    0.58911    0.21221   1.00
H2       0.64520    0.45949    0.15383   1.00
H2       0.60243    0.53546    0.24315   1.00
C6       0.62044    0.36735    0.19052   1.00
C6       0.60934    0.62708    0.19836   1.00
C6       0.57373    0.42074    0.17025   1.00
C6       0.56598    0.57107    0.17770   1.00
C6       0.62084    0.39245    0.12187   1.00
C6       0.55914    0.60054    0.24438   1.00
H2       0.64996    0.35558    0.18810   1.00
H2       0.62634    0.64020    0.22190   1.00
H2       0.61478    0.37330    0.22121   1.00
H2       0.62900    0.62154    0.17402   1.00
H2       0.60012    0.34459    0.18140   1.00
H2       0.58803    0.64863    0.18857   1.00
H2       0.55206    0.39955    0.16046   1.00
H2       0.54335    0.59098    0.16738   1.00
H2       0.56761    0.42725    0.20078   1.00
H2       0.58525    0.56494    0.15315   1.00
H2       0.56983    0.44745    0.15337   1.00
H2       0.55200    0.54385    0.18646   1.00
H2       0.64991    0.38042    0.11681   1.00
H2       0.57385    0.61383    0.26933   1.00
H2       0.59959    0.37025    0.11345   1.00
H2       0.53778    0.62149    0.23345   1.00
H2       0.61700    0.41739    0.10245   1.00
H2       0.54320    0.57502    0.25482   1.00
C4       0.51975    0.25460    0.25134   1.00
C4       0.47809    0.25514    0.25279   1.00
C3       0.54103    0.26692    0.21781   1.00
C3       0.45496    0.27180    0.22252   1.00
C3       0.54146    0.24127    0.28440   1.00
C3       0.45830    0.23856    0.28558   1.00
C2       0.60405    0.25534    0.24905   1.00
C2       0.39378    0.25453    0.25479   1.00
C3       0.58189    0.26749    0.21669   1.00
C3       0.41409    0.27137    0.22333   1.00
C3       0.58304    0.24252    0.28216   1.00
C3       0.41664    0.23851    0.28518   1.00
H1       0.52763    0.27558    0.19279   1.00
H1       0.46694    0.28522    0.19893   1.00
C5       0.52165    0.22698    0.31838   1.00
C5       0.48002    0.22282    0.31770   1.00
H1       0.59549    0.27685    0.19169   1.00
H1       0.39909    0.28373    0.20052   1.00
H1       0.59948    0.23353    0.30517   1.00
H1       0.40152    0.22675    0.30784   1.00
C6       0.54485    0.21690    0.35461   1.00
C6       0.45881    0.20168    0.35020   1.00
H2       0.56655    0.23959    0.35969   1.00
H2       0.43690    0.18246    0.33750   1.00
H2       0.52714    0.21900    0.38084   1.00
H2       0.47772    0.18095    0.36499   1.00
C6       0.56394    0.17537    0.35283   1.00
C6       0.44058    0.22994    0.38120   1.00
H2       0.57708    0.17088    0.32411   1.00
H2       0.42617    0.25422    0.36635   1.00
C6       0.59541    0.16522    0.38435   1.00
C6       0.41089    0.21221    0.41106   1.00
H2       0.54051    0.15383    0.35480   1.00
H2       0.46454    0.24315    0.39757   1.00
C6       0.63265    0.19052    0.37956   1.00
C6       0.37292    0.19836    0.39066   1.00
C6       0.57926    0.17025    0.42627   1.00
C6       0.42893    0.17770    0.43402   1.00
C6       0.60755    0.12187    0.37916   1.00
C6       0.39946    0.24438    0.44086   1.00
H2       0.64442    0.18810    0.35004   1.00
H2       0.35980    0.22190    0.37366   1.00
H2       0.62670    0.22121    0.38522   1.00
H2       0.37846    0.17402    0.37100   1.00
H2       0.65541    0.18140    0.39988   1.00
H2       0.35137    0.18857    0.41197   1.00
H2       0.60045    0.16046    0.44794   1.00
H2       0.40902    0.16738    0.45665   1.00
H2       0.57275    0.20078    0.43239   1.00
H2       0.43506    0.15315    0.41475   1.00
H2       0.55255    0.15337    0.43017   1.00
H2       0.45615    0.18646    0.44800   1.00
H2       0.61958    0.11681    0.35009   1.00
H2       0.38617    0.26933    0.42615   1.00
H2       0.62975    0.11345    0.40041   1.00
H2       0.37851    0.23345    0.46222   1.00
H2       0.58261    0.10245    0.38300   1.00
H2       0.42498    0.25482    0.45680   1.00
C4       0.98025    0.25460    0.24866   1.00
C4       1.02191    0.25514    0.24721   1.00
C3       0.95897    0.26692    0.28219   1.00
C3       1.04504    0.27180    0.27748   1.00
C3       0.95854    0.24127    0.21560   1.00
C3       1.04170    0.23856    0.21442   1.00
C2       0.89595    0.25534    0.25095   1.00
C2       1.10622    0.25453    0.24521   1.00
C3       0.91811    0.26749    0.28331   1.00
C3       1.08591    0.27137    0.27667   1.00
C3       0.91696    0.24252    0.21784   1.00
C3       1.08336    0.23851    0.21482   1.00
H1       0.97237    0.27558    0.30721   1.00
H1       1.03306    0.28522    0.30107   1.00
C5       0.97835    0.22698    0.18162   1.00
C5       1.01998    0.22282    0.18230   1.00
H1       0.90451    0.27685    0.30831   1.00
H1       1.10091    0.28373    0.29948   1.00
H1       0.90052    0.23353    0.19483   1.00
H1       1.09848    0.22675    0.19216   1.00
C6       0.95515    0.21690    0.14539   1.00
C6       1.04119    0.20168    0.14980   1.00
H2       0.93345    0.23959    0.14031   1.00
H2       1.06310    0.18246    0.16250   1.00
H2       0.97286    0.21900    0.11916   1.00
H2       1.02228    0.18095    0.13501   1.00
C6       0.93606    0.17537    0.14717   1.00
C6       1.05942    0.22994    0.11880   1.00
H2       0.92292    0.17088    0.17589   1.00
H2       1.07383    0.25422    0.13365   1.00
C6       0.90459    0.16522    0.11565   1.00
C6       1.08911    0.21221    0.08894   1.00
H2       0.95949    0.15383    0.14520   1.00
H2       1.03546    0.24315    0.10243   1.00
C6       0.86735    0.19052    0.12044   1.00
C6       1.12708    0.19836    0.10934   1.00
C6       0.92074    0.17025    0.07373   1.00
C6       1.07107    0.17770    0.06598   1.00
C6       0.89245    0.12187    0.12084   1.00
C6       1.10054    0.24438    0.05914   1.00
H2       0.85558    0.18810    0.14996   1.00
H2       1.14020    0.22190    0.12634   1.00
H2       0.87330    0.22121    0.11478   1.00
H2       1.12154    0.17402    0.12900   1.00
H2       0.84459    0.18140    0.10012   1.00
H2       1.14863    0.18857    0.08803   1.00
H2       0.89955    0.16046    0.05206   1.00
H2       1.09098    0.16738    0.04335   1.00
H2       0.92725    0.20078    0.06761   1.00
H2       1.06494    0.15315    0.08525   1.00
H2       0.94745    0.15337    0.06983   1.00
H2       1.04385    0.18646    0.05200   1.00
H2       0.88042    0.11681    0.14991   1.00
H2       1.11383    0.26933    0.07385   1.00
H2       0.87025    0.11345    0.09959   1.00
H2       1.12149    0.23345    0.03778   1.00
H2       0.91739    0.10245    0.11700   1.00
H2       1.07502    0.25482    0.04320   1.00
C4       0.75134    0.01975    0.25460   1.00
C4       0.75279    -0.02191   0.25514   1.00
C3       0.71781    0.04103    0.26692   1.00
C3       0.72252    -0.04504   0.27180   1.00
C3       0.78440    0.04146    0.24127   1.00
C3       0.78558    -0.04170   0.23856   1.00
C2       0.74905    0.10405    0.25534   1.00
C2       0.75479    -0.10622   0.25453   1.00
C3       0.71669    0.08189    0.26749   1.00
C3       0.72333    -0.08591   0.27137   1.00
C3       0.78216    0.08304    0.24252   1.00
C3       0.78518    -0.08336   0.23851   1.00
H1       0.69279    0.02763    0.27558   1.00
H1       0.69893    -0.03306   0.28522   1.00
C5       0.81838    0.02165    0.22698   1.00
C5       0.81770    -0.01998   0.22282   1.00
H1       0.69169    0.09549    0.27685   1.00
H1       0.70052    -0.10091   0.28373   1.00
H1       0.80517    0.09948    0.23353   1.00
H1       0.80784    -0.09848   0.22675   1.00
C6       0.85461    0.04485    0.21690   1.00
C6       0.85020    -0.04119   0.20168   1.00
H2       0.85969    0.06655    0.23959   1.00
H2       0.83750    -0.06310   0.18246   1.00
H2       0.88084    0.02714    0.21900   1.00
H2       0.86499    -0.02228   0.18095   1.00
C6       0.85283    0.06394    0.17537   1.00
C6       0.88120    -0.05942   0.22994   1.00
H2       0.82411    0.07708    0.17088   1.00
H2       0.86635    -0.07383   0.25422   1.00
C6       0.88435    0.09541    0.16522   1.00
C6       0.91106    -0.08911   0.21221   1.00
H2       0.85480    0.04051    0.15383   1.00
H2       0.89757    -0.03546   0.24315   1.00
C6       0.87956    0.13265    0.19052   1.00
C6       0.89066    -0.12708   0.19836   1.00
C6       0.92627    0.07926    0.17025   1.00
C6       0.93402    -0.07107   0.17770   1.00
C6       0.87916    0.10755    0.12187   1.00
C6       0.94086    -0.10054   0.24438   1.00
H2       0.85004    0.14442    0.18810   1.00
H2       0.87366    -0.14020   0.22190   1.00
H2       0.88522    0.12670    0.22121   1.00
H2       0.87100    -0.12154   0.17402   1.00
H2       0.89988    0.15541    0.18140   1.00
H2       0.91197    -0.14863   0.18857   1.00
H2       0.94794    0.10045    0.16046   1.00
H2       0.95665    -0.09098   0.16738   1.00
H2       0.93239    0.07275    0.20078   1.00
H2       0.91475    -0.06494   0.15315   1.00
H2       0.93017    0.05255    0.15337   1.00
H2       0.94800    -0.04385   0.18646   1.00
H2       0.85009    0.11958    0.11681   1.00
H2       0.92615    -0.11383   0.26933   1.00
H2       0.90041    0.12975    0.11345   1.00
H2       0.96222    -0.12149   0.23345   1.00
H2       0.88300    0.08261    0.10245   1.00
H2       0.95680    -0.07502   0.25482   1.00
C4       0.75460    0.25134    0.01975   1.00
C4       0.75514    0.25279    -0.02191   1.00
C3       0.76692    0.21781    0.04103   1.00
C3       0.77180    0.22252    -0.04504   1.00
C3       0.74127    0.28440    0.04146   1.00
C3       0.73856    0.28558    -0.04170   1.00
C2       0.75534    0.24905    0.10405   1.00
C2       0.75453    0.25479    -0.10622   1.00
C3       0.76749    0.21669    0.08189   1.00
C3       0.77137    0.22333    -0.08591   1.00
C3       0.74252    0.28216    0.08304   1.00
C3       0.73851    0.28518    -0.08336   1.00
H1       0.77558    0.19279    0.02763   1.00
H1       0.78522    0.19893    -0.03306   1.00
C5       0.72698    0.31838    0.02165   1.00
C5       0.72282    0.31770    -0.01998   1.00
H1       0.77685    0.19169    0.09549   1.00
H1       0.78373    0.20052    -0.10091   1.00
H1       0.73353    0.30517    0.09948   1.00
H1       0.72675    0.30784    -0.09848   1.00
C6       0.71690    0.35461    0.04485   1.00
C6       0.70168    0.35020    -0.04119   1.00
H2       0.73959    0.35969    0.06655   1.00
H2       0.68246    0.33750    -0.06310   1.00
H2       0.71900    0.38084    0.02714   1.00
H2       0.68095    0.36499    -0.02228   1.00
C6       0.67537    0.35283    0.06394   1.00
C6       0.72994    0.38120    -0.05942   1.00
H2       0.67088    0.32411    0.07708   1.00
H2       0.75422    0.36635    -0.07383   1.00
C6       0.66522    0.38435    0.09541   1.00
C6       0.71221    0.41106    -0.08911   1.00
H2       0.65383    0.35480    0.04051   1.00
H2       0.74315    0.39757    -0.03546   1.00
C6       0.69052    0.37956    0.13265   1.00
C6       0.69836    0.39066    -0.12708   1.00
C6       0.67025    0.42627    0.07926   1.00
C6       0.67770    0.43402    -0.07107   1.00
C6       0.62187    0.37916    0.10755   1.00
C6       0.74438    0.44086    -0.10054   1.00
H2       0.68810    0.35004    0.14442   1.00
H2       0.72190    0.37366    -0.14020   1.00
H2       0.72121    0.38522    0.12670   1.00
H2       0.67402    0.37100    -0.12154   1.00
H2       0.68140    0.39988    0.15541   1.00
H2       0.68857    0.41197    -0.14863   1.00
H2       0.66046    0.44794    0.10045   1.00
H2       0.66738    0.45665    -0.09098   1.00
H2       0.70078    0.43239    0.07275   1.00
H2       0.65315    0.41475    -0.06494   1.00
H2       0.65337    0.43017    0.05255   1.00
H2       0.68646    0.44800    -0.04385   1.00
H2       0.61681    0.35009    0.11958   1.00
H2       0.76933    0.42615    -0.11383   1.00
H2       0.61345    0.40041    0.12975   1.00
H2       0.73345    0.46222    -0.12149   1.00
H2       0.60245    0.38300    0.08261   1.00
H2       0.75482    0.45680    -0.07502   1.00
C4       1.00460    0.99866    1.23025   1.00
C4       1.00514    0.99721    1.27191   1.00
C3       1.01692    1.03219    1.20897   1.00
C3       1.02180    1.02748    1.29504   1.00
C3       0.99127    0.96560    1.20854   1.00
C3       0.98856    0.96442    1.29170   1.00
C2       1.00534    1.00095    1.14595   1.00
C2       1.00453    0.99521    1.35622   1.00
C3       1.01749    1.03331    1.16811   1.00
C3       1.02137    1.02667    1.33591   1.00
C3       0.99252    0.96784    1.16696   1.00
C3       0.98851    0.96482    1.33336   1.00
H1       1.02558    1.05721    1.22237   1.00
H1       1.03522    1.05107    1.28306   1.00
C5       0.97698    0.93162    1.22835   1.00
C5       0.97282    0.93230    1.26998   1.00
H1       1.02685    1.05831    1.15451   1.00
H1       1.03373    1.04948    1.35091   1.00
H1       0.98353    0.94483    1.15052   1.00
H1       0.97675    0.94216    1.34848   1.00
C6       0.96690    0.89539    1.20515   1.00
C6       0.95168    0.89980    1.29119   1.00
H2       0.98959    0.89031    1.18345   1.00
H2       0.93246    0.91250    1.31310   1.00
H2       0.96900    0.86916    1.22286   1.00
H2       0.93095    0.88501    1.27228   1.00
C6       0.92537    0.89717    1.18606   1.00
C6       0.97994    0.86880    1.30942   1.00
H2       0.92088    0.92589    1.17292   1.00
H2       1.00422    0.88365    1.32383   1.00
C6       0.91522    0.86565    1.15459   1.00
C6       0.96221    0.83894    1.33911   1.00
H2       0.90383    0.89520    1.20949   1.00
H2       0.99315    0.85243    1.28546   1.00
C6       0.94052    0.87044    1.11735   1.00
C6       0.94836    0.85934    1.37708   1.00
C6       0.92025    0.82373    1.17074   1.00
C6       0.92770    0.81598    1.32107   1.00
C6       0.87187    0.87084    1.14245   1.00
C6       0.99438    0.80914    1.35054   1.00
H2       0.93810    0.89996    1.10558   1.00
H2       0.97190    0.87634    1.39020   1.00
H2       0.97121    0.86478    1.12330   1.00
H2       0.92402    0.87900    1.37154   1.00
H2       0.93140    0.85012    1.09459   1.00
H2       0.93857    0.83803    1.39863   1.00
H2       0.91046    0.80206    1.14955   1.00
H2       0.91738    0.79335    1.34098   1.00
H2       0.95078    0.81761    1.17725   1.00
H2       0.90315    0.83525    1.31494   1.00
H2       0.90337    0.81983    1.19745   1.00
H2       0.93646    0.80200    1.29385   1.00
H2       0.86681    0.89991    1.13042   1.00
H2       1.01933    0.82385    1.36383   1.00
H2       0.86345    0.84959    1.12025   1.00
H2       0.98345    0.78778    1.37149   1.00
H2       0.85245    0.86700    1.16739   1.00
H2       1.00482    0.79320    1.32502   1.00
C4       0.99866    1.23025    1.00460   1.00
C4       0.99721    1.27191    1.00514   1.00
C3       1.03219    1.20897    1.01692   1.00
C3       1.02748    1.29504    1.02180   1.00
C3       0.96560    1.20854    0.99127   1.00
C3       0.96442    1.29170    0.98856   1.00
C2       1.00095    1.14595    1.00534   1.00
C2       0.99521    1.35622    1.00453   1.00
C3       1.03331    1.16811    1.01749   1.00
C3       1.02667    1.33591    1.02137   1.00
C3       0.96784    1.16696    0.99252   1.00
C3       0.96482    1.33336    0.98851   1.00
H1       1.05721    1.22237    1.02558   1.00
H1       1.05107    1.28306    1.03522   1.00
C5       0.93162    1.22835    0.97698   1.00
C5       0.93230    1.26998    0.97282   1.00
H1       1.05831    1.15451    1.02685   1.00
H1       1.04948    1.35091    1.03373   1.00
H1       0.94483    1.15052    0.98353   1.00
H1       0.94216    1.34848    0.97675   1.00
C6       0.89539    1.20515    0.96690   1.00
C6       0.89980    1.29119    0.95168   1.00
H2       0.89031    1.18345    0.98959   1.00
H2       0.91250    1.31310    0.93246   1.00
H2       0.86916    1.22286    0.96900   1.00
H2       0.88501    1.27228    0.93095   1.00
C6       0.89717    1.18606    0.92537   1.00
C6       0.86880    1.30942    0.97994   1.00
H2       0.92589    1.17292    0.92088   1.00
H2       0.88365    1.32383    1.00422   1.00
C6       0.86565    1.15459    0.91522   1.00
C6       0.83894    1.33911    0.96221   1.00
H2       0.89520    1.20949    0.90383   1.00
H2       0.85243    1.28546    0.99315   1.00
C6       0.87044    1.11735    0.94052   1.00
C6       0.85934    1.37708    0.94836   1.00
C6       0.82373    1.17074    0.92025   1.00
C6       0.81598    1.32107    0.92770   1.00
C6       0.87084    1.14245    0.87187   1.00
C6       0.80914    1.35054    0.99438   1.00
H2       0.89996    1.10558    0.93810   1.00
H2       0.87634    1.39020    0.97190   1.00
H2       0.86478    1.12330    0.97121   1.00
H2       0.87900    1.37154    0.92402   1.00
H2       0.85012    1.09459    0.93140   1.00
H2       0.83803    1.39863    0.93857   1.00
H2       0.80206    1.14955    0.91046   1.00
H2       0.79335    1.34098    0.91738   1.00
H2       0.81761    1.17725    0.95078   1.00
H2       0.83525    1.31494    0.90315   1.00
H2       0.81983    1.19745    0.90337   1.00
H2       0.80200    1.29385    0.93646   1.00
H2       0.89991    1.13042    0.86681   1.00
H2       0.82385    1.36383    1.01933   1.00
H2       0.84959    1.12025    0.86345   1.00
H2       0.78778    1.37149    0.98345   1.00
H2       0.86700    1.16739    0.85245   1.00
H2       0.79320    1.32502    1.00482   1.00
C4       0.76975    1.00460    1.00134   1.00
C4       0.72809    1.00514    1.00279   1.00
C3       0.79103    1.01692    0.96781   1.00
C3       0.70496    1.02180    0.97252   1.00
C3       0.79146    0.99127    1.03440   1.00
C3       0.70830    0.98856    1.03558   1.00
C2       0.85405    1.00534    0.99905   1.00
C2       0.64378    1.00453    1.00479   1.00
C3       0.83189    1.01749    0.96669   1.00
C3       0.66409    1.02137    0.97333   1.00
C3       0.83304    0.99252    1.03216   1.00
C3       0.66664    0.98851    1.03518   1.00
H1       0.77763    1.02558    0.94279   1.00
H1       0.71694    1.03522    0.94893   1.00
C5       0.77165    0.97698    1.06838   1.00
C5       0.73002    0.97282    1.06770   1.00
H1       0.84549    1.02685    0.94169   1.00
H1       0.64909    1.03373    0.95052   1.00
H1       0.84948    0.98353    1.05517   1.00
H1       0.65152    0.97675    1.05784   1.00
C6       0.79485    0.96690    1.10461   1.00
C6       0.70881    0.95168    1.10020   1.00
H2       0.81655    0.98959    1.10969   1.00
H2       0.68690    0.93246    1.08750   1.00
H2       0.77714    0.96900    1.13084   1.00
H2       0.72772    0.93095    1.11499   1.00
C6       0.81394    0.92537    1.10283   1.00
C6       0.69058    0.97994    1.13120   1.00
H2       0.82708    0.92088    1.07411   1.00
H2       0.67617    1.00422    1.11635   1.00
C6       0.84541    0.91522    1.13435   1.00
C6       0.66089    0.96221    1.16106   1.00
H2       0.79051    0.90383    1.10480   1.00
H2       0.71454    0.99315    1.14757   1.00
C6       0.88265    0.94052    1.12956   1.00
C6       0.62292    0.94836    1.14066   1.00
C6       0.82926    0.92025    1.17627   1.00
C6       0.67893    0.92770    1.18402   1.00
C6       0.85755    0.87187    1.12916   1.00
C6       0.64946    0.99438    1.19086   1.00
H2       0.89442    0.93810    1.10004   1.00
H2       0.60980    0.97190    1.12366   1.00
H2       0.87670    0.97121    1.13522   1.00
H2       0.62846    0.92402    1.12100   1.00
H2       0.90541    0.93140    1.14988   1.00
H2       0.60137    0.93857    1.16197   1.00
H2       0.85045    0.91046    1.19794   1.00
H2       0.65902    0.91738    1.20665   1.00
H2       0.82275    0.95078    1.18239   1.00
H2       0.68506    0.90315    1.16475   1.00
H2       0.80255    0.90337    1.18017   1.00
H2       0.70615    0.93646    1.19800   1.00
H2       0.86958    0.86681    1.10009   1.00
H2       0.63617    1.01933    1.17615   1.00
H2       0.87975    0.86345    1.15041   1.00
H2       0.62851    0.98345    1.21222   1.00
H2       0.83261    0.85245    1.13300   1.00
H2       0.67498    1.00482    1.20680   1.00
C4       1.23025    1.00460    0.99866   1.00
C4       1.27191    1.00514    0.99721   1.00
C3       1.20897    1.01692    1.03219   1.00
C3       1.29504    1.02180    1.02748   1.00
C3       1.20854    0.99127    0.96560   1.00
C3       1.29170    0.98856    0.96442   1.00
C2       1.14595    1.00534    1.00095   1.00
C2       1.35622    1.00453    0.99521   1.00
C3       1.16811    1.01749    1.03331   1.00
C3       1.33591    1.02137    1.02667   1.00
C3       1.16696    0.99252    0.96784   1.00
C3       1.33336    0.98851    0.96482   1.00
H1       1.22237    1.02558    1.05721   1.00
H1       1.28306    1.03522    1.05107   1.00
C5       1.22835    0.97698    0.93162   1.00
C5       1.26998    0.97282    0.93230   1.00
H1       1.15451    1.02685    1.05831   1.00
H1       1.35091    1.03373    1.04948   1.00
H1       1.15052    0.98353    0.94483   1.00
H1       1.34848    0.97675    0.94216   1.00
C6       1.20515    0.96690    0.89539   1.00
C6       1.29119    0.95168    0.89980   1.00
H2       1.18345    0.98959    0.89031   1.00
H2       1.31310    0.93246    0.91250   1.00
H2       1.22286    0.96900    0.86916   1.00
H2       1.27228    0.93095    0.88501   1.00
C6       1.18606    0.92537    0.89717   1.00
C6       1.30942    0.97994    0.86880   1.00
H2       1.17292    0.92088    0.92589   1.00
H2       1.32383    1.00422    0.88365   1.00
C6       1.15459    0.91522    0.86565   1.00
C6       1.33911    0.96221    0.83894   1.00
H2       1.20949    0.90383    0.89520   1.00
H2       1.28546    0.99315    0.85243   1.00
C6       1.11735    0.94052    0.87044   1.00
C6       1.37708    0.94836    0.85934   1.00
C6       1.17074    0.92025    0.82373   1.00
C6       1.32107    0.92770    0.81598   1.00
C6       1.14245    0.87187    0.87084   1.00
C6       1.35054    0.99438    0.80914   1.00
H2       1.10558    0.93810    0.89996   1.00
H2       1.39020    0.97190    0.87634   1.00
H2       1.12330    0.97121    0.86478   1.00
H2       1.37154    0.92402    0.87900   1.00
H2       1.09459    0.93140    0.85012   1.00
H2       1.39863    0.93857    0.83803   1.00
H2       1.14955    0.91046    0.80206   1.00
H2       1.34098    0.91738    0.79335   1.00
H2       1.17725    0.95078    0.81761   1.00
H2       1.31494    0.90315    0.83525   1.00
H2       1.19745    0.90337    0.81983   1.00
H2       1.29385    0.93646    0.80200   1.00
H2       1.13042    0.86681    0.89991   1.00
H2       1.36383    1.01933    0.82385   1.00
H2       1.12025    0.86345    0.84959   1.00
H2       1.37149    0.98345    0.78778   1.00
H2       1.16739    0.85245    0.86700   1.00
H2       1.32502    1.00482    0.79320   1.00
C4       1.00134    0.76975    1.00460   1.00
C4       1.00279    0.72809    1.00514   1.00
C3       0.96781    0.79103    1.01692   1.00
C3       0.97252    0.70496    1.02180   1.00
C3       1.03440    0.79146    0.99127   1.00
C3       1.03558    0.70830    0.98856   1.00
C2       0.99905    0.85405    1.00534   1.00
C2       1.00479    0.64378    1.00453   1.00
C3       0.96669    0.83189    1.01749   1.00
C3       0.97333    0.66409    1.02137   1.00
C3       1.03216    0.83304    0.99252   1.00
C3       1.03518    0.66664    0.98851   1.00
H1       0.94279    0.77763    1.02558   1.00
H1       0.94893    0.71694    1.03522   1.00
C5       1.06838    0.77165    0.97698   1.00
C5       1.06770    0.73002    0.97282   1.00
H1       0.94169    0.84549    1.02685   1.00
H1       0.95052    0.64909    1.03373   1.00
H1       1.05517    0.84948    0.98353   1.00
H1       1.05784    0.65152    0.97675   1.00
C6       1.10461    0.79485    0.96690   1.00
C6       1.10020    0.70881    0.95168   1.00
H2       1.10969    0.81655    0.98959   1.00
H2       1.08750    0.68690    0.93246   1.00
H2       1.13084    0.77714    0.96900   1.00
H2       1.11499    0.72772    0.93095   1.00
C6       1.10283    0.81394    0.92537   1.00
C6       1.13120    0.69058    0.97994   1.00
H2       1.07411    0.82708    0.92088   1.00
H2       1.11635    0.67617    1.00422   1.00
C6       1.13435    0.84541    0.91522   1.00
C6       1.16106    0.66089    0.96221   1.00
H2       1.10480    0.79051    0.90383   1.00
H2       1.14757    0.71454    0.99315   1.00
C6       1.12956    0.88265    0.94052   1.00
C6       1.14066    0.62292    0.94836   1.00
C6       1.17627    0.82926    0.92025   1.00
C6       1.18402    0.67893    0.92770   1.00
C6       1.12916    0.85755    0.87187   1.00
C6       1.19086    0.64946    0.99438   1.00
H2       1.10004    0.89442    0.93810   1.00
H2       1.12366    0.60980    0.97190   1.00
H2       1.13522    0.87670    0.97121   1.00
H2       1.12100    0.62846    0.92402   1.00
H2       1.14988    0.90541    0.93140   1.00
H2       1.16197    0.60137    0.93857   1.00
H2       1.19794    0.85045    0.91046   1.00
H2       1.20665    0.65902    0.91738   1.00
H2       1.18239    0.82275    0.95078   1.00
H2       1.16475    0.68506    0.90315   1.00
H2       1.18017    0.80255    0.90337   1.00
H2       1.19800    0.70615    0.93646   1.00
H2       1.10009    0.86958    0.86681   1.00
H2       1.17615    0.63617    1.01933   1.00
H2       1.15041    0.87975    0.86345   1.00
H2       1.21222    0.62851    0.98345   1.00
H2       1.13300    0.83261    0.85245   1.00
H2       1.20680    0.67498    1.00482   1.00
C4       1.00460    1.00134    0.76975   1.00
C4       1.00514    1.00279    0.72809   1.00
C3       1.01692    0.96781    0.79103   1.00
C3       1.02180    0.97252    0.70496   1.00
C3       0.99127    1.03440    0.79146   1.00
C3       0.98856    1.03558    0.70830   1.00
C2       1.00534    0.99905    0.85405   1.00
C2       1.00453    1.00479    0.64378   1.00
C3       1.01749    0.96669    0.83189   1.00
C3       1.02137    0.97333    0.66409   1.00
C3       0.99252    1.03216    0.83304   1.00
C3       0.98851    1.03518    0.66664   1.00
H1       1.02558    0.94279    0.77763   1.00
H1       1.03522    0.94893    0.71694   1.00
C5       0.97698    1.06838    0.77165   1.00
C5       0.97282    1.06770    0.73002   1.00
H1       1.02685    0.94169    0.84549   1.00
H1       1.03373    0.95052    0.64909   1.00
H1       0.98353    1.05517    0.84948   1.00
H1       0.97675    1.05784    0.65152   1.00
C6       0.96690    1.10461    0.79485   1.00
C6       0.95168    1.10020    0.70881   1.00
H2       0.98959    1.10969    0.81655   1.00
H2       0.93246    1.08750    0.68690   1.00
H2       0.96900    1.13084    0.77714   1.00
H2       0.93095    1.11499    0.72772   1.00
C6       0.92537    1.10283    0.81394   1.00
C6       0.97994    1.13120    0.69058   1.00
H2       0.92088    1.07411    0.82708   1.00
H2       1.00422    1.11635    0.67617   1.00
C6       0.91522    1.13435    0.84541   1.00
C6       0.96221    1.16106    0.66089   1.00
H2       0.90383    1.10480    0.79051   1.00
H2       0.99315    1.14757    0.71454   1.00
C6       0.94052    1.12956    0.88265   1.00
C6       0.94836    1.14066    0.62292   1.00
C6       0.92025    1.17627    0.82926   1.00
C6       0.92770    1.18402    0.67893   1.00
C6       0.87187    1.12916    0.85755   1.00
C6       0.99438    1.19086    0.64946   1.00
H2       0.93810    1.10004    0.89442   1.00
H2       0.97190    1.12366    0.60980   1.00
H2       0.97121    1.13522    0.87670   1.00
H2       0.92402    1.12100    0.62846   1.00
H2       0.93140    1.14988    0.90541   1.00
H2       0.93857    1.16197    0.60137   1.00
H2       0.91046    1.19794    0.85045   1.00
H2       0.91738    1.20665    0.65902   1.00
H2       0.95078    1.18239    0.82275   1.00
H2       0.90315    1.16475    0.68506   1.00
H2       0.90337    1.18017    0.80255   1.00
H2       0.93646    1.19800    0.70615   1.00
H2       0.86681    1.10009    0.86958   1.00
H2       1.01933    1.17615    0.63617   1.00
H2       0.86345    1.15041    0.87975   1.00
H2       0.98345    1.21222    0.62851   1.00
H2       0.85245    1.13300    0.83261   1.00
H2       1.00482    1.20680    0.67498   1.00
C4       0.50460    0.49866    1.23025   1.00
C4       0.50514    0.49721    1.27191   1.00
C3       0.51692    0.53219    1.20897   1.00
C3       0.52180    0.52748    1.29504   1.00
C3       0.49127    0.46560    1.20854   1.00
C3       0.48856    0.46442    1.29170   1.00
C2       0.50534    0.50095    1.14595   1.00
C2       0.50453    0.49521    1.35622   1.00
C3       0.51749    0.53331    1.16811   1.00
C3       0.52137    0.52667    1.33591   1.00
C3       0.49252    0.46784    1.16696   1.00
C3       0.48851    0.46482    1.33336   1.00
H1       0.52558    0.55721    1.22237   1.00
H1       0.53522    0.55107    1.28306   1.00
C5       0.47698    0.43162    1.22835   1.00
C5       0.47282    0.43230    1.26998   1.00
H1       0.52685    0.55831    1.15451   1.00
H1       0.53373    0.54948    1.35091   1.00
H1       0.48353    0.44483    1.15052   1.00
H1       0.47675    0.44216    1.34848   1.00
C6       0.46690    0.39539    1.20515   1.00
C6       0.45168    0.39980    1.29119   1.00
H2       0.48959    0.39031    1.18345   1.00
H2       0.43246    0.41250    1.31310   1.00
H2       0.46900    0.36916    1.22286   1.00
H2       0.43095    0.38501    1.27228   1.00
C6       0.42537    0.39717    1.18606   1.00
C6       0.47994    0.36880    1.30942   1.00
H2       0.42088    0.42589    1.17292   1.00
H2       0.50422    0.38365    1.32383   1.00
C6       0.41522    0.36565    1.15459   1.00
C6       0.46221    0.33894    1.33911   1.00
H2       0.40383    0.39520    1.20949   1.00
H2       0.49315    0.35243    1.28546   1.00
C6       0.44052    0.37044    1.11735   1.00
C6       0.44836    0.35934    1.37708   1.00
C6       0.42025    0.32373    1.17074   1.00
C6       0.42770    0.31598    1.32107   1.00
C6       0.37187    0.37084    1.14245   1.00
C6       0.49438    0.30914    1.35054   1.00
H2       0.43810    0.39996    1.10558   1.00
H2       0.47190    0.37634    1.39020   1.00
H2       0.47121    0.36478    1.12330   1.00
H2       0.42402    0.37900    1.37154   1.00
H2       0.43140    0.35012    1.09459   1.00
H2       0.43857    0.33803    1.39863   1.00
H2       0.41046    0.30206    1.14955   1.00
H2       0.41738    0.29335    1.34098   1.00
H2       0.45078    0.31761    1.17725   1.00
H2       0.40315    0.33525    1.31494   1.00
H2       0.40337    0.31983    1.19745   1.00
H2       0.43646    0.30200    1.29385   1.00
H2       0.36681    0.39991    1.13042   1.00
H2       0.51933    0.32385    1.36383   1.00
H2       0.36345    0.34959    1.12025   1.00
H2       0.48345    0.28778    1.37149   1.00
H2       0.35245    0.36700    1.16739   1.00
H2       0.50482    0.29320    1.32502   1.00
C4       0.49866    0.73025    1.00460   1.00
C4       0.49721    0.77191    1.00514   1.00
C3       0.53219    0.70897    1.01692   1.00
C3       0.52748    0.79504    1.02180   1.00
C3       0.46560    0.70854    0.99127   1.00
C3       0.46442    0.79170    0.98856   1.00
C2       0.50095    0.64595    1.00534   1.00
C2       0.49521    0.85622    1.00453   1.00
C3       0.53331    0.66811    1.01749   1.00
C3       0.52667    0.83591    1.02137   1.00
C3       0.46784    0.66696    0.99252   1.00
C3       0.46482    0.83336    0.98851   1.00
H1       0.55721    0.72237    1.02558   1.00
H1       0.55107    0.78306    1.03522   1.00
C5       0.43162    0.72835    0.97698   1.00
C5       0.43230    0.76998    0.97282   1.00
H1       0.55831    0.65451    1.02685   1.00
H1       0.54948    0.85091    1.03373   1.00
H1       0.44483    0.65052    0.98353   1.00
H1       0.44216    0.84848    0.97675   1.00
C6       0.39539    0.70515    0.96690   1.00
C6       0.39980    0.79119    0.95168   1.00
H2       0.39031    0.68345    0.98959   1.00
H2       0.41250    0.81310    0.93246   1.00
H2       0.36916    0.72286    0.96900   1.00
H2       0.38501    0.77228    0.93095   1.00
C6       0.39717    0.68606    0.92537   1.00
C6       0.36880    0.80942    0.97994   1.00
H2       0.42589    0.67292    0.92088   1.00
H2       0.38365    0.82383    1.00422   1.00
C6       0.36565    0.65459    0.91522   1.00
C6       0.33894    0.83911    0.96221   1.00
H2       0.39520    0.70949    0.90383   1.00
H2       0.35243    0.78546    0.99315   1.00
C6       0.37044    0.61735    0.94052   1.00
C6       0.35934    0.87708    0.94836   1.00
C6       0.32373    0.67074    0.92025   1.00
C6       0.31598    0.82107    0.92770   1.00
C6       0.37084    0.64245    0.87187   1.00
C6       0.30914    0.85054    0.99438   1.00
H2       0.39996    0.60558    0.93810   1.00
H2       0.37634    0.89020    0.97190   1.00
H2       0.36478    0.62330    0.97121   1.00
H2       0.37900    0.87154    0.92402   1.00
H2       0.35012    0.59459    0.93140   1.00
H2       0.33803    0.89863    0.93857   1.00
H2       0.30206    0.64955    0.91046   1.00
H2       0.29335    0.84098    0.91738   1.00
H2       0.31761    0.67725    0.95078   1.00
H2       0.33525    0.81494    0.90315   1.00
H2       0.31983    0.69745    0.90337   1.00
H2       0.30200    0.79385    0.93646   1.00
H2       0.39991    0.63042    0.86681   1.00
H2       0.32385    0.86383    1.01933   1.00
H2       0.34959    0.62025    0.86345   1.00
H2       0.28778    0.87149    0.98345   1.00
H2       0.36700    0.66739    0.85245   1.00
H2       0.29320    0.82502    1.00482   1.00
C4       0.26975    0.50460    1.00134   1.00
C4       0.22809    0.50514    1.00279   1.00
C3       0.29103    0.51692    0.96781   1.00
C3       0.20496    0.52180    0.97252   1.00
C3       0.29146    0.49127    1.03440   1.00
C3       0.20830    0.48856    1.03558   1.00
C2       0.35405    0.50534    0.99905   1.00
C2       0.14378    0.50453    1.00479   1.00
C3       0.33189    0.51749    0.96669   1.00
C3       0.16409    0.52137    0.97333   1.00
C3       0.33304    0.49252    1.03216   1.00
C3       0.16664    0.48851    1.03518   1.00
H1       0.27763    0.52558    0.94279   1.00
H1       0.21694    0.53522    0.94893   1.00
C5       0.27165    0.47698    1.06838   1.00
C5       0.23002    0.47282    1.06770   1.00
H1       0.34549    0.52685    0.94169   1.00
H1       0.14909    0.53373    0.95052   1.00
H1       0.34948    0.48353    1.05517   1.00
H1       0.15152    0.47675    1.05784   1.00
C6       0.29485    0.46690    1.10461   1.00
C6       0.20881    0.45168    1.10020   1.00
H2       0.31655    0.48959    1.10969   1.00
H2       0.18690    0.43246    1.08750   1.00
H2       0.27714    0.46900    1.13084   1.00
H2       0.22772    0.43095    1.11499   1.00
C6       0.31394    0.42537    1.10283   1.00
C6       0.19058    0.47994    1.13120   1.00
H2       0.32708    0.42088    1.07411   1.00
H2       0.17617    0.50422    1.11635   1.00
C6       0.34541    0.41522    1.13435   1.00
C6       0.16089    0.46221    1.16106   1.00
H2       0.29051    0.40383    1.10480   1.00
H2       0.21454    0.49315    1.14757   1.00
C6       0.38265    0.44052    1.12956   1.00
C6       0.12292    0.44836    1.14066   1.00
C6       0.32926    0.42025    1.17627   1.00
C6       0.17893    0.42770    1.18402   1.00
C6       0.35755    0.37187    1.12916   1.00
C6       0.14946    0.49438    1.19086   1.00
H2       0.39442    0.43810    1.10004   1.00
H2       0.10980    0.47190    1.12366   1.00
H2       0.37670    0.47121    1.13522   1.00
H2       0.12846    0.42402    1.12100   1.00
H2       0.40541    0.43140    1.14988   1.00
H2       0.10137    0.43857    1.16197   1.00
H2       0.35045    0.41046    1.19794   1.00
H2       0.15902    0.41738    1.20665   1.00
H2       0.32275    0.45078    1.18239   1.00
H2       0.18506    0.40315    1.16475   1.00
H2       0.30255    0.40337    1.18017   1.00
H2       0.20615    0.43646    1.19800   1.00
H2       0.36958    0.36681    1.10009   1.00
H2       0.13617    0.51933    1.17615   1.00
H2       0.37975    0.36345    1.15041   1.00
H2       0.12851    0.48345    1.21222   1.00
H2       0.33261    0.35245    1.13300   1.00
H2       0.17498    0.50482    1.20680   1.00
C4       0.73025    0.50460    0.99866   1.00
C4       0.77191    0.50514    0.99721   1.00
C3       0.70897    0.51692    1.03219   1.00
C3       0.79504    0.52180    1.02748   1.00
C3       0.70854    0.49127    0.96560   1.00
C3       0.79170    0.48856    0.96442   1.00
C2       0.64595    0.50534    1.00095   1.00
C2       0.85622    0.50453    0.99521   1.00
C3       0.66811    0.51749    1.03331   1.00
C3       0.83591    0.52137    1.02667   1.00
C3       0.66696    0.49252    0.96784   1.00
C3       0.83336    0.48851    0.96482   1.00
H1       0.72237    0.52558    1.05721   1.00
H1       0.78306    0.53522    1.05107   1.00
C5       0.72835    0.47698    0.93162   1.00
C5       0.76998    0.47282    0.93230   1.00
H1       0.65451    0.52685    1.05831   1.00
H1       0.85091    0.53373    1.04948   1.00
H1       0.65052    0.48353    0.94483   1.00
H1       0.84848    0.47675    0.94216   1.00
C6       0.70515    0.46690    0.89539   1.00
C6       0.79119    0.45168    0.89980   1.00
H2       0.68345    0.48959    0.89031   1.00
H2       0.81310    0.43246    0.91250   1.00
H2       0.72286    0.46900    0.86916   1.00
H2       0.77228    0.43095    0.88501   1.00
C6       0.68606    0.42537    0.89717   1.00
C6       0.80942    0.47994    0.86880   1.00
H2       0.67292    0.42088    0.92589   1.00
H2       0.82383    0.50422    0.88365   1.00
C6       0.65459    0.41522    0.86565   1.00
C6       0.83911    0.46221    0.83894   1.00
H2       0.70949    0.40383    0.89520   1.00
H2       0.78546    0.49315    0.85243   1.00
C6       0.61735    0.44052    0.87044   1.00
C6       0.87708    0.44836    0.85934   1.00
C6       0.67074    0.42025    0.82373   1.00
C6       0.82107    0.42770    0.81598   1.00
C6       0.64245    0.37187    0.87084   1.00
C6       0.85054    0.49438    0.80914   1.00
H2       0.60558    0.43810    0.89996   1.00
H2       0.89020    0.47190    0.87634   1.00
H2       0.62330    0.47121    0.86478   1.00
H2       0.87154    0.42402    0.87900   1.00
H2       0.59459    0.43140    0.85012   1.00
H2       0.89863    0.43857    0.83803   1.00
H2       0.64955    0.41046    0.80206   1.00
H2       0.84098    0.41738    0.79335   1.00
H2       0.67725    0.45078    0.81761   1.00
H2       0.81494    0.40315    0.83525   1.00
H2       0.69745    0.40337    0.81983   1.00
H2       0.79385    0.43646    0.80200   1.00
H2       0.63042    0.36681    0.89991   1.00
H2       0.86383    0.51933    0.82385   1.00
H2       0.62025    0.36345    0.84959   1.00
H2       0.87149    0.48345    0.78778   1.00
H2       0.66739    0.35245    0.86700   1.00
H2       0.82502    0.50482    0.79320   1.00
C4       0.50134    0.26975    1.00460   1.00
C4       0.50279    0.22809    1.00514   1.00
C3       0.46781    0.29103    1.01692   1.00
C3       0.47252    0.20496    1.02180   1.00
C3       0.53440    0.29146    0.99127   1.00
C3       0.53558    0.20830    0.98856   1.00
C2       0.49905    0.35405    1.00534   1.00
C2       0.50479    0.14378    1.00453   1.00
C3       0.46669    0.33189    1.01749   1.00
C3       0.47333    0.16409    1.02137   1.00
C3       0.53216    0.33304    0.99252   1.00
C3       0.53518    0.16664    0.98851   1.00
H1       0.44279    0.27763    1.02558   1.00
H1       0.44893    0.21694    1.03522   1.00
C5       0.56838    0.27165    0.97698   1.00
C5       0.56770    0.23002    0.97282   1.00
H1       0.44169    0.34549    1.02685   1.00
H1       0.45052    0.14909    1.03373   1.00
H1       0.55517    0.34948    0.98353   1.00
H1       0.55784    0.15152    0.97675   1.00
C6       0.60461    0.29485    0.96690   1.00
C6       0.60020    0.20881    0.95168   1.00
H2       0.60969    0.31655    0.98959   1.00
H2       0.58750    0.18690    0.93246   1.00
H2       0.63084    0.27714    0.96900   1.00
H2       0.61499    0.22772    0.93095   1.00
C6       0.60283    0.31394    0.92537   1.00
C6       0.63120    0.19058    0.97994   1.00
H2       0.57411    0.32708    0.92088   1.00
H2       0.61635    0.17617    1.00422   1.00
C6       0.63435    0.34541    0.91522   1.00
C6       0.66106    0.16089    0.96221   1.00
H2       0.60480    0.29051    0.90383   1.00
H2       0.64757    0.21454    0.99315   1.00
C6       0.62956    0.38265    0.94052   1.00
C6       0.64066    0.12292    0.94836   1.00
C6       0.67627    0.32926    0.92025   1.00
C6       0.68402    0.17893    0.92770   1.00
C6       0.62916    0.35755    0.87187   1.00
C6       0.69086    0.14946    0.99438   1.00
H2       0.60004    0.39442    0.93810   1.00
H2       0.62366    0.10980    0.97190   1.00
H2       0.63522    0.37670    0.97121   1.00
H2       0.62100    0.12846    0.92402   1.00
H2       0.64988    0.40541    0.93140   1.00
H2       0.66197    0.10137    0.93857   1.00
H2       0.69794    0.35045    0.91046   1.00
H2       0.70665    0.15902    0.91738   1.00
H2       0.68239    0.32275    0.95078   1.00
H2       0.66475    0.18506    0.90315   1.00
H2       0.68017    0.30255    0.90337   1.00
H2       0.69800    0.20615    0.93646   1.00
H2       0.60009    0.36958    0.86681   1.00
H2       0.67615    0.13617    1.01933   1.00
H2       0.65041    0.37975    0.86345   1.00
H2       0.71222    0.12851    0.98345   1.00
H2       0.63300    0.33261    0.85245   1.00
H2       0.70680    0.17498    1.00482   1.00
C4       0.50460    0.50134    0.76975   1.00
C4       0.50514    0.50279    0.72809   1.00
C3       0.51692    0.46781    0.79103   1.00
C3       0.52180    0.47252    0.70496   1.00
C3       0.49127    0.53440    0.79146   1.00
C3       0.48856    0.53558    0.70830   1.00
C2       0.50534    0.49905    0.85405   1.00
C2       0.50453    0.50479    0.64378   1.00
C3       0.51749    0.46669    0.83189   1.00
C3       0.52137    0.47333    0.66409   1.00
C3       0.49252    0.53216    0.83304   1.00
C3       0.48851    0.53518    0.66664   1.00
H1       0.52558    0.44279    0.77763   1.00
H1       0.53522    0.44893    0.71694   1.00
C5       0.47698    0.56838    0.77165   1.00
C5       0.47282    0.56770    0.73002   1.00
H1       0.52685    0.44169    0.84549   1.00
H1       0.53373    0.45052    0.64909   1.00
H1       0.48353    0.55517    0.84948   1.00
H1       0.47675    0.55784    0.65152   1.00
C6       0.46690    0.60461    0.79485   1.00
C6       0.45168    0.60020    0.70881   1.00
H2       0.48959    0.60969    0.81655   1.00
H2       0.43246    0.58750    0.68690   1.00
H2       0.46900    0.63084    0.77714   1.00
H2       0.43095    0.61499    0.72772   1.00
C6       0.42537    0.60283    0.81394   1.00
C6       0.47994    0.63120    0.69058   1.00
H2       0.42088    0.57411    0.82708   1.00
H2       0.50422    0.61635    0.67617   1.00
C6       0.41522    0.63435    0.84541   1.00
C6       0.46221    0.66106    0.66089   1.00
H2       0.40383    0.60480    0.79051   1.00
H2       0.49315    0.64757    0.71454   1.00
C6       0.44052    0.62956    0.88265   1.00
C6       0.44836    0.64066    0.62292   1.00
C6       0.42025    0.67627    0.82926   1.00
C6       0.42770    0.68402    0.67893   1.00
C6       0.37187    0.62916    0.85755   1.00
C6       0.49438    0.69086    0.64946   1.00
H2       0.43810    0.60004    0.89442   1.00
H2       0.47190    0.62366    0.60980   1.00
H2       0.47121    0.63522    0.87670   1.00
H2       0.42402    0.62100    0.62846   1.00
H2       0.43140    0.64988    0.90541   1.00
H2       0.43857    0.66197    0.60137   1.00
H2       0.41046    0.69794    0.85045   1.00
H2       0.41738    0.70665    0.65902   1.00
H2       0.45078    0.68239    0.82275   1.00
H2       0.40315    0.66475    0.68506   1.00
H2       0.40337    0.68017    0.80255   1.00
H2       0.43646    0.69800    0.70615   1.00
H2       0.36681    0.60009    0.86958   1.00
H2       0.51933    0.67615    0.63617   1.00
H2       0.36345    0.65041    0.87975   1.00
H2       0.48345    0.71222    0.62851   1.00
H2       0.35245    0.63300    0.83261   1.00
H2       0.50482    0.70680    0.67498   1.00
C4       0.50460    0.99866    0.73025   1.00
C4       0.50514    0.99721    0.77191   1.00
C3       0.51692    1.03219    0.70897   1.00
C3       0.52180    1.02748    0.79504   1.00
C3       0.49127    0.96560    0.70854   1.00
C3       0.48856    0.96442    0.79170   1.00
C2       0.50534    1.00095    0.64595   1.00
C2       0.50453    0.99521    0.85622   1.00
C3       0.51749    1.03331    0.66811   1.00
C3       0.52137    1.02667    0.83591   1.00
C3       0.49252    0.96784    0.66696   1.00
C3       0.48851    0.96482    0.83336   1.00
H1       0.52558    1.05721    0.72237   1.00
H1       0.53522    1.05107    0.78306   1.00
C5       0.47698    0.93162    0.72835   1.00
C5       0.47282    0.93230    0.76998   1.00
H1       0.52685    1.05831    0.65451   1.00
H1       0.53373    1.04948    0.85091   1.00
H1       0.48353    0.94483    0.65052   1.00
H1       0.47675    0.94216    0.84848   1.00
C6       0.46690    0.89539    0.70515   1.00
C6       0.45168    0.89980    0.79119   1.00
H2       0.48959    0.89031    0.68345   1.00
H2       0.43246    0.91250    0.81310   1.00
H2       0.46900    0.86916    0.72286   1.00
H2       0.43095    0.88501    0.77228   1.00
C6       0.42537    0.89717    0.68606   1.00
C6       0.47994    0.86880    0.80942   1.00
H2       0.42088    0.92589    0.67292   1.00
H2       0.50422    0.88365    0.82383   1.00
C6       0.41522    0.86565    0.65459   1.00
C6       0.46221    0.83894    0.83911   1.00
H2       0.40383    0.89520    0.70949   1.00
H2       0.49315    0.85243    0.78546   1.00
C6       0.44052    0.87044    0.61735   1.00
C6       0.44836    0.85934    0.87708   1.00
C6       0.42025    0.82373    0.67074   1.00
C6       0.42770    0.81598    0.82107   1.00
C6       0.37187    0.87084    0.64245   1.00
C6       0.49438    0.80914    0.85054   1.00
H2       0.43810    0.89996    0.60558   1.00
H2       0.47190    0.87634    0.89020   1.00
H2       0.47121    0.86478    0.62330   1.00
H2       0.42402    0.87900    0.87154   1.00
H2       0.43140    0.85012    0.59459   1.00
H2       0.43857    0.83803    0.89863   1.00
H2       0.41046    0.80206    0.64955   1.00
H2       0.41738    0.79335    0.84098   1.00
H2       0.45078    0.81761    0.67725   1.00
H2       0.40315    0.83525    0.81494   1.00
H2       0.40337    0.81983    0.69745   1.00
H2       0.43646    0.80200    0.79385   1.00
H2       0.36681    0.89991    0.63042   1.00
H2       0.51933    0.82385    0.86383   1.00
H2       0.36345    0.84959    0.62025   1.00
H2       0.48345    0.78778    0.87149   1.00
H2       0.35245    0.86700    0.66739   1.00
H2       0.50482    0.79320    0.82502   1.00
C4       0.49866    1.23025    0.50460   1.00
C4       0.49721    1.27191    0.50514   1.00
C3       0.53219    1.20897    0.51692   1.00
C3       0.52748    1.29504    0.52180   1.00
C3       0.46560    1.20854    0.49127   1.00
C3       0.46442    1.29170    0.48856   1.00
C2       0.50095    1.14595    0.50534   1.00
C2       0.49521    1.35622    0.50453   1.00
C3       0.53331    1.16811    0.51749   1.00
C3       0.52667    1.33591    0.52137   1.00
C3       0.46784    1.16696    0.49252   1.00
C3       0.46482    1.33336    0.48851   1.00
H1       0.55721    1.22237    0.52558   1.00
H1       0.55107    1.28306    0.53522   1.00
C5       0.43162    1.22835    0.47698   1.00
C5       0.43230    1.26998    0.47282   1.00
H1       0.55831    1.15451    0.52685   1.00
H1       0.54948    1.35091    0.53373   1.00
H1       0.44483    1.15052    0.48353   1.00
H1       0.44216    1.34848    0.47675   1.00
C6       0.39539    1.20515    0.46690   1.00
C6       0.39980    1.29119    0.45168   1.00
H2       0.39031    1.18345    0.48959   1.00
H2       0.41250    1.31310    0.43246   1.00
H2       0.36916    1.22286    0.46900   1.00
H2       0.38501    1.27228    0.43095   1.00
C6       0.39717    1.18606    0.42537   1.00
C6       0.36880    1.30942    0.47994   1.00
H2       0.42589    1.17292    0.42088   1.00
H2       0.38365    1.32383    0.50422   1.00
C6       0.36565    1.15459    0.41522   1.00
C6       0.33894    1.33911    0.46221   1.00
H2       0.39520    1.20949    0.40383   1.00
H2       0.35243    1.28546    0.49315   1.00
C6       0.37044    1.11735    0.44052   1.00
C6       0.35934    1.37708    0.44836   1.00
C6       0.32373    1.17074    0.42025   1.00
C6       0.31598    1.32107    0.42770   1.00
C6       0.37084    1.14245    0.37187   1.00
C6       0.30914    1.35054    0.49438   1.00
H2       0.39996    1.10558    0.43810   1.00
H2       0.37634    1.39020    0.47190   1.00
H2       0.36478    1.12330    0.47121   1.00
H2       0.37900    1.37154    0.42402   1.00
H2       0.35012    1.09459    0.43140   1.00
H2       0.33803    1.39863    0.43857   1.00
H2       0.30206    1.14955    0.41046   1.00
H2       0.29335    1.34098    0.41738   1.00
H2       0.31761    1.17725    0.45078   1.00
H2       0.33525    1.31494    0.40315   1.00
H2       0.31983    1.19745    0.40337   1.00
H2       0.30200    1.29385    0.43646   1.00
H2       0.39991    1.13042    0.36681   1.00
H2       0.32385    1.36383    0.51933   1.00
H2       0.34959    1.12025    0.36345   1.00
H2       0.28778    1.37149    0.48345   1.00
H2       0.36700    1.16739    0.35245   1.00
H2       0.29320    1.32502    0.50482   1.00
C4       0.26975    1.00460    0.50134   1.00
C4       0.22809    1.00514    0.50279   1.00
C3       0.29103    1.01692    0.46781   1.00
C3       0.20496    1.02180    0.47252   1.00
C3       0.29146    0.99127    0.53440   1.00
C3       0.20830    0.98856    0.53558   1.00
C2       0.35405    1.00534    0.49905   1.00
C2       0.14378    1.00453    0.50479   1.00
C3       0.33189    1.01749    0.46669   1.00
C3       0.16409    1.02137    0.47333   1.00
C3       0.33304    0.99252    0.53216   1.00
C3       0.16664    0.98851    0.53518   1.00
H1       0.27763    1.02558    0.44279   1.00
H1       0.21694    1.03522    0.44893   1.00
C5       0.27165    0.97698    0.56838   1.00
C5       0.23002    0.97282    0.56770   1.00
H1       0.34549    1.02685    0.44169   1.00
H1       0.14909    1.03373    0.45052   1.00
H1       0.34948    0.98353    0.55517   1.00
H1       0.15152    0.97675    0.55784   1.00
C6       0.29485    0.96690    0.60461   1.00
C6       0.20881    0.95168    0.60020   1.00
H2       0.31655    0.98959    0.60969   1.00
H2       0.18690    0.93246    0.58750   1.00
H2       0.27714    0.96900    0.63084   1.00
H2       0.22772    0.93095    0.61499   1.00
C6       0.31394    0.92537    0.60283   1.00
C6       0.19058    0.97994    0.63120   1.00
H2       0.32708    0.92088    0.57411   1.00
H2       0.17617    1.00422    0.61635   1.00
C6       0.34541    0.91522    0.63435   1.00
C6       0.16089    0.96221    0.66106   1.00
H2       0.29051    0.90383    0.60480   1.00
H2       0.21454    0.99315    0.64757   1.00
C6       0.38265    0.94052    0.62956   1.00
C6       0.12292    0.94836    0.64066   1.00
C6       0.32926    0.92025    0.67627   1.00
C6       0.17893    0.92770    0.68402   1.00
C6       0.35755    0.87187    0.62916   1.00
C6       0.14946    0.99438    0.69086   1.00
H2       0.39442    0.93810    0.60004   1.00
H2       0.10980    0.97190    0.62366   1.00
H2       0.37670    0.97121    0.63522   1.00
H2       0.12846    0.92402    0.62100   1.00
H2       0.40541    0.93140    0.64988   1.00
H2       0.10137    0.93857    0.66197   1.00
H2       0.35045    0.91046    0.69794   1.00
H2       0.15902    0.91738    0.70665   1.00
H2       0.32275    0.95078    0.68239   1.00
H2       0.18506    0.90315    0.66475   1.00
H2       0.30255    0.90337    0.68017   1.00
H2       0.20615    0.93646    0.69800   1.00
H2       0.36958    0.86681    0.60009   1.00
H2       0.13617    1.01933    0.67615   1.00
H2       0.37975    0.86345    0.65041   1.00
H2       0.12851    0.98345    0.71222   1.00
H2       0.33261    0.85245    0.63300   1.00
H2       0.17498    1.00482    0.70680   1.00
C4       0.73025    1.00460    0.49866   1.00
C4       0.77191    1.00514    0.49721   1.00
C3       0.70897    1.01692    0.53219   1.00
C3       0.79504    1.02180    0.52748   1.00
C3       0.70854    0.99127    0.46560   1.00
C3       0.79170    0.98856    0.46442   1.00
C2       0.64595    1.00534    0.50095   1.00
C2       0.85622    1.00453    0.49521   1.00
C3       0.66811    1.01749    0.53331   1.00
C3       0.83591    1.02137    0.52667   1.00
C3       0.66696    0.99252    0.46784   1.00
C3       0.83336    0.98851    0.46482   1.00
H1       0.72237    1.02558    0.55721   1.00
H1       0.78306    1.03522    0.55107   1.00
C5       0.72835    0.97698    0.43162   1.00
C5       0.76998    0.97282    0.43230   1.00
H1       0.65451    1.02685    0.55831   1.00
H1       0.85091    1.03373    0.54948   1.00
H1       0.65052    0.98353    0.44483   1.00
H1       0.84848    0.97675    0.44216   1.00
C6       0.70515    0.96690    0.39539   1.00
C6       0.79119    0.95168    0.39980   1.00
H2       0.68345    0.98959    0.39031   1.00
H2       0.81310    0.93246    0.41250   1.00
H2       0.72286    0.96900    0.36916   1.00
H2       0.77228    0.93095    0.38501   1.00
C6       0.68606    0.92537    0.39717   1.00
C6       0.80942    0.97994    0.36880   1.00
H2       0.67292    0.92088    0.42589   1.00
H2       0.82383    1.00422    0.38365   1.00
C6       0.65459    0.91522    0.36565   1.00
C6       0.83911    0.96221    0.33894   1.00
H2       0.70949    0.90383    0.39520   1.00
H2       0.78546    0.99315    0.35243   1.00
C6       0.61735    0.94052    0.37044   1.00
C6       0.87708    0.94836    0.35934   1.00
C6       0.67074    0.92025    0.32373   1.00
C6       0.82107    0.92770    0.31598   1.00
C6       0.64245    0.87187    0.37084   1.00
C6       0.85054    0.99438    0.30914   1.00
H2       0.60558    0.93810    0.39996   1.00
H2       0.89020    0.97190    0.37634   1.00
H2       0.62330    0.97121    0.36478   1.00
H2       0.87154    0.92402    0.37900   1.00
H2       0.59459    0.93140    0.35012   1.00
H2       0.89863    0.93857    0.33803   1.00
H2       0.64955    0.91046    0.30206   1.00
H2       0.84098    0.91738    0.29335   1.00
H2       0.67725    0.95078    0.31761   1.00
H2       0.81494    0.90315    0.33525   1.00
H2       0.69745    0.90337    0.31983   1.00
H2       0.79385    0.93646    0.30200   1.00
H2       0.63042    0.86681    0.39991   1.00
H2       0.86383    1.01933    0.32385   1.00
H2       0.62025    0.86345    0.34959   1.00
H2       0.87149    0.98345    0.28778   1.00
H2       0.66739    0.85245    0.36700   1.00
H2       0.82502    1.00482    0.29320   1.00
C4       0.50134    0.76975    0.50460   1.00
C4       0.50279    0.72809    0.50514   1.00
C3       0.46781    0.79103    0.51692   1.00
C3       0.47252    0.70496    0.52180   1.00
C3       0.53440    0.79146    0.49127   1.00
C3       0.53558    0.70830    0.48856   1.00
C2       0.49905    0.85405    0.50534   1.00
C2       0.50479    0.64378    0.50453   1.00
C3       0.46669    0.83189    0.51749   1.00
C3       0.47333    0.66409    0.52137   1.00
C3       0.53216    0.83304    0.49252   1.00
C3       0.53518    0.66664    0.48851   1.00
H1       0.44279    0.77763    0.52558   1.00
H1       0.44893    0.71694    0.53522   1.00
C5       0.56838    0.77165    0.47698   1.00
C5       0.56770    0.73002    0.47282   1.00
H1       0.44169    0.84549    0.52685   1.00
H1       0.45052    0.64909    0.53373   1.00
H1       0.55517    0.84948    0.48353   1.00
H1       0.55784    0.65152    0.47675   1.00
C6       0.60461    0.79485    0.46690   1.00
C6       0.60020    0.70881    0.45168   1.00
H2       0.60969    0.81655    0.48959   1.00
H2       0.58750    0.68690    0.43246   1.00
H2       0.63084    0.77714    0.46900   1.00
H2       0.61499    0.72772    0.43095   1.00
C6       0.60283    0.81394    0.42537   1.00
C6       0.63120    0.69058    0.47994   1.00
H2       0.57411    0.82708    0.42088   1.00
H2       0.61635    0.67617    0.50422   1.00
C6       0.63435    0.84541    0.41522   1.00
C6       0.66106    0.66089    0.46221   1.00
H2       0.60480    0.79051    0.40383   1.00
H2       0.64757    0.71454    0.49315   1.00
C6       0.62956    0.88265    0.44052   1.00
C6       0.64066    0.62292    0.44836   1.00
C6       0.67627    0.82926    0.42025   1.00
C6       0.68402    0.67893    0.42770   1.00
C6       0.62916    0.85755    0.37187   1.00
C6       0.69086    0.64946    0.49438   1.00
H2       0.60004    0.89442    0.43810   1.00
H2       0.62366    0.60980    0.47190   1.00
H2       0.63522    0.87670    0.47121   1.00
H2       0.62100    0.62846    0.42402   1.00
H2       0.64988    0.90541    0.43140   1.00
H2       0.66197    0.60137    0.43857   1.00
H2       0.69794    0.85045    0.41046   1.00
H2       0.70665    0.65902    0.41738   1.00
H2       0.68239    0.82275    0.45078   1.00
H2       0.66475    0.68506    0.40315   1.00
H2       0.68017    0.80255    0.40337   1.00
H2       0.69800    0.70615    0.43646   1.00
H2       0.60009    0.86958    0.36681   1.00
H2       0.67615    0.63617    0.51933   1.00
H2       0.65041    0.87975    0.36345   1.00
H2       0.71222    0.62851    0.48345   1.00
H2       0.63300    0.83261    0.35245   1.00
H2       0.70680    0.67498    0.50482   1.00
C4       0.50460    1.00134    0.26975   1.00
C4       0.50514    1.00279    0.22809   1.00
C3       0.51692    0.96781    0.29103   1.00
C3       0.52180    0.97252    0.20496   1.00
C3       0.49127    1.03440    0.29146   1.00
C3       0.48856    1.03558    0.20830   1.00
C2       0.50534    0.99905    0.35405   1.00
C2       0.50453    1.00479    0.14378   1.00
C3       0.51749    0.96669    0.33189   1.00
C3       0.52137    0.97333    0.16409   1.00
C3       0.49252    1.03216    0.33304   1.00
C3       0.48851    1.03518    0.16664   1.00
H1       0.52558    0.94279    0.27763   1.00
H1       0.53522    0.94893    0.21694   1.00
C5       0.47698    1.06838    0.27165   1.00
C5       0.47282    1.06770    0.23002   1.00
H1       0.52685    0.94169    0.34549   1.00
H1       0.53373    0.95052    0.14909   1.00
H1       0.48353    1.05517    0.34948   1.00
H1       0.47675    1.05784    0.15152   1.00
C6       0.46690    1.10461    0.29485   1.00
C6       0.45168    1.10020    0.20881   1.00
H2       0.48959    1.10969    0.31655   1.00
H2       0.43246    1.08750    0.18690   1.00
H2       0.46900    1.13084    0.27714   1.00
H2       0.43095    1.11499    0.22772   1.00
C6       0.42537    1.10283    0.31394   1.00
C6       0.47994    1.13120    0.19058   1.00
H2       0.42088    1.07411    0.32708   1.00
H2       0.50422    1.11635    0.17617   1.00
C6       0.41522    1.13435    0.34541   1.00
C6       0.46221    1.16106    0.16089   1.00
H2       0.40383    1.10480    0.29051   1.00
H2       0.49315    1.14757    0.21454   1.00
C6       0.44052    1.12956    0.38265   1.00
C6       0.44836    1.14066    0.12292   1.00
C6       0.42025    1.17627    0.32926   1.00
C6       0.42770    1.18402    0.17893   1.00
C6       0.37187    1.12916    0.35755   1.00
C6       0.49438    1.19086    0.14946   1.00
H2       0.43810    1.10004    0.39442   1.00
H2       0.47190    1.12366    0.10980   1.00
H2       0.47121    1.13522    0.37670   1.00
H2       0.42402    1.12100    0.12846   1.00
H2       0.43140    1.14988    0.40541   1.00
H2       0.43857    1.16197    0.10137   1.00
H2       0.41046    1.19794    0.35045   1.00
H2       0.41738    1.20665    0.15902   1.00
H2       0.45078    1.18239    0.32275   1.00
H2       0.40315    1.16475    0.18506   1.00
H2       0.40337    1.18017    0.30255   1.00
H2       0.43646    1.19800    0.20615   1.00
H2       0.36681    1.10009    0.36958   1.00
H2       0.51933    1.17615    0.13617   1.00
H2       0.36345    1.15041    0.37975   1.00
H2       0.48345    1.21222    0.12851   1.00
H2       0.35245    1.13300    0.33261   1.00
H2       0.50482    1.20680    0.17498   1.00
C4       1.00460    0.49866    0.73025   1.00
C4       1.00514    0.49721    0.77191   1.00
C3       1.01692    0.53219    0.70897   1.00
C3       1.02180    0.52748    0.79504   1.00
C3       0.99127    0.46560    0.70854   1.00
C3       0.98856    0.46442    0.79170   1.00
C2       1.00534    0.50095    0.64595   1.00
C2       1.00453    0.49521    0.85622   1.00
C3       1.01749    0.53331    0.66811   1.00
C3       1.02137    0.52667    0.83591   1.00
C3       0.99252    0.46784    0.66696   1.00
C3       0.98851    0.46482    0.83336   1.00
H1       1.02558    0.55721    0.72237   1.00
H1       1.03522    0.55107    0.78306   1.00
C5       0.97698    0.43162    0.72835   1.00
C5       0.97282    0.43230    0.76998   1.00
H1       1.02685    0.55831    0.65451   1.00
H1       1.03373    0.54948    0.85091   1.00
H1       0.98353    0.44483    0.65052   1.00
H1       0.97675    0.44216    0.84848   1.00
C6       0.96690    0.39539    0.70515   1.00
C6       0.95168    0.39980    0.79119   1.00
H2       0.98959    0.39031    0.68345   1.00
H2       0.93246    0.41250    0.81310   1.00
H2       0.96900    0.36916    0.72286   1.00
H2       0.93095    0.38501    0.77228   1.00
C6       0.92537    0.39717    0.68606   1.00
C6       0.97994    0.36880    0.80942   1.00
H2       0.92088    0.42589    0.67292   1.00
H2       1.00422    0.38365    0.82383   1.00
C6       0.91522    0.36565    0.65459   1.00
C6       0.96221    0.33894    0.83911   1.00
H2       0.90383    0.39520    0.70949   1.00
H2       0.99315    0.35243    0.78546   1.00
C6       0.94052    0.37044    0.61735   1.00
C6       0.94836    0.35934    0.87708   1.00
C6       0.92025    0.32373    0.67074   1.00
C6       0.92770    0.31598    0.82107   1.00
C6       0.87187    0.37084    0.64245   1.00
C6       0.99438    0.30914    0.85054   1.00
H2       0.93810    0.39996    0.60558   1.00
H2       0.97190    0.37634    0.89020   1.00
H2       0.97121    0.36478    0.62330   1.00
H2       0.92402    0.37900    0.87154   1.00
H2       0.93140    0.35012    0.59459   1.00
H2       0.93857    0.33803    0.89863   1.00
H2       0.91046    0.30206    0.64955   1.00
H2       0.91738    0.29335    0.84098   1.00
H2       0.95078    0.31761    0.67725   1.00
H2       0.90315    0.33525    0.81494   1.00
H2       0.90337    0.31983    0.69745   1.00
H2       0.93646    0.30200    0.79385   1.00
H2       0.86681    0.39991    0.63042   1.00
H2       1.01933    0.32385    0.86383   1.00
H2       0.86345    0.34959    0.62025   1.00
H2       0.98345    0.28778    0.87149   1.00
H2       0.85245    0.36700    0.66739   1.00
H2       1.00482    0.29320    0.82502   1.00
C4       0.99866    0.73025    0.50460   1.00
C4       0.99721    0.77191    0.50514   1.00
C3       1.03219    0.70897    0.51692   1.00
C3       1.02748    0.79504    0.52180   1.00
C3       0.96560    0.70854    0.49127   1.00
C3       0.96442    0.79170    0.48856   1.00
C2       1.00095    0.64595    0.50534   1.00
C2       0.99521    0.85622    0.50453   1.00
C3       1.03331    0.66811    0.51749   1.00
C3       1.02667    0.83591    0.52137   1.00
C3       0.96784    0.66696    0.49252   1.00
C3       0.96482    0.83336    0.48851   1.00
H1       1.05721    0.72237    0.52558   1.00
H1       1.05107    0.78306    0.53522   1.00
C5       0.93162    0.72835    0.47698   1.00
C5       0.93230    0.76998    0.47282   1.00
H1       1.05831    0.65451    0.52685   1.00
H1       1.04948    0.85091    0.53373   1.00
H1       0.94483    0.65052    0.48353   1.00
H1       0.94216    0.84848    0.47675   1.00
C6       0.89539    0.70515    0.46690   1.00
C6       0.89980    0.79119    0.45168   1.00
H2       0.89031    0.68345    0.48959   1.00
H2       0.91250    0.81310    0.43246   1.00
H2       0.86916    0.72286    0.46900   1.00
H2       0.88501    0.77228    0.43095   1.00
C6       0.89717    0.68606    0.42537   1.00
C6       0.86880    0.80942    0.47994   1.00
H2       0.92589    0.67292    0.42088   1.00
H2       0.88365    0.82383    0.50422   1.00
C6       0.86565    0.65459    0.41522   1.00
C6       0.83894    0.83911    0.46221   1.00
H2       0.89520    0.70949    0.40383   1.00
H2       0.85243    0.78546    0.49315   1.00
C6       0.87044    0.61735    0.44052   1.00
C6       0.85934    0.87708    0.44836   1.00
C6       0.82373    0.67074    0.42025   1.00
C6       0.81598    0.82107    0.42770   1.00
C6       0.87084    0.64245    0.37187   1.00
C6       0.80914    0.85054    0.49438   1.00
H2       0.89996    0.60558    0.43810   1.00
H2       0.87634    0.89020    0.47190   1.00
H2       0.86478    0.62330    0.47121   1.00
H2       0.87900    0.87154    0.42402   1.00
H2       0.85012    0.59459    0.43140   1.00
H2       0.83803    0.89863    0.43857   1.00
H2       0.80206    0.64955    0.41046   1.00
H2       0.79335    0.84098    0.41738   1.00
H2       0.81761    0.67725    0.45078   1.00
H2       0.83525    0.81494    0.40315   1.00
H2       0.81983    0.69745    0.40337   1.00
H2       0.80200    0.79385    0.43646   1.00
H2       0.89991    0.63042    0.36681   1.00
H2       0.82385    0.86383    0.51933   1.00
H2       0.84959    0.62025    0.36345   1.00
H2       0.78778    0.87149    0.48345   1.00
H2       0.86700    0.66739    0.35245   1.00
H2       0.79320    0.82502    0.50482   1.00
C4       0.76975    0.50460    0.50134   1.00
C4       0.72809    0.50514    0.50279   1.00
C3       0.79103    0.51692    0.46781   1.00
C3       0.70496    0.52180    0.47252   1.00
C3       0.79146    0.49127    0.53440   1.00
C3       0.70830    0.48856    0.53558   1.00
C2       0.85405    0.50534    0.49905   1.00
C2       0.64378    0.50453    0.50479   1.00
C3       0.83189    0.51749    0.46669   1.00
C3       0.66409    0.52137    0.47333   1.00
C3       0.83304    0.49252    0.53216   1.00
C3       0.66664    0.48851    0.53518   1.00
H1       0.77763    0.52558    0.44279   1.00
H1       0.71694    0.53522    0.44893   1.00
C5       0.77165    0.47698    0.56838   1.00
C5       0.73002    0.47282    0.56770   1.00
H1       0.84549    0.52685    0.44169   1.00
H1       0.64909    0.53373    0.45052   1.00
H1       0.84948    0.48353    0.55517   1.00
H1       0.65152    0.47675    0.55784   1.00
C6       0.79485    0.46690    0.60461   1.00
C6       0.70881    0.45168    0.60020   1.00
H2       0.81655    0.48959    0.60969   1.00
H2       0.68690    0.43246    0.58750   1.00
H2       0.77714    0.46900    0.63084   1.00
H2       0.72772    0.43095    0.61499   1.00
C6       0.81394    0.42537    0.60283   1.00
C6       0.69058    0.47994    0.63120   1.00
H2       0.82708    0.42088    0.57411   1.00
H2       0.67617    0.50422    0.61635   1.00
C6       0.84541    0.41522    0.63435   1.00
C6       0.66089    0.46221    0.66106   1.00
H2       0.79051    0.40383    0.60480   1.00
H2       0.71454    0.49315    0.64757   1.00
C6       0.88265    0.44052    0.62956   1.00
C6       0.62292    0.44836    0.64066   1.00
C6       0.82926    0.42025    0.67627   1.00
C6       0.67893    0.42770    0.68402   1.00
C6       0.85755    0.37187    0.62916   1.00
C6       0.64946    0.49438    0.69086   1.00
H2       0.89442    0.43810    0.60004   1.00
H2       0.60980    0.47190    0.62366   1.00
H2       0.87670    0.47121    0.63522   1.00
H2       0.62846    0.42402    0.62100   1.00
H2       0.90541    0.43140    0.64988   1.00
H2       0.60137    0.43857    0.66197   1.00
H2       0.85045    0.41046    0.69794   1.00
H2       0.65902    0.41738    0.70665   1.00
H2       0.82275    0.45078    0.68239   1.00
H2       0.68506    0.40315    0.66475   1.00
H2       0.80255    0.40337    0.68017   1.00
H2       0.70615    0.43646    0.69800   1.00
H2       0.86958    0.36681    0.60009   1.00
H2       0.63617    0.51933    0.67615   1.00
H2       0.87975    0.36345    0.65041   1.00
H2       0.62851    0.48345    0.71222   1.00
H2       0.83261    0.35245    0.63300   1.00
H2       0.67498    0.50482    0.70680   1.00
C4       1.23025    0.50460    0.49866   1.00
C4       1.27191    0.50514    0.49721   1.00
C3       1.20897    0.51692    0.53219   1.00
C3       1.29504    0.52180    0.52748   1.00
C3       1.20854    0.49127    0.46560   1.00
C3       1.29170    0.48856    0.46442   1.00
C2       1.14595    0.50534    0.50095   1.00
C2       1.35622    0.50453    0.49521   1.00
C3       1.16811    0.51749    0.53331   1.00
C3       1.33591    0.52137    0.52667   1.00
C3       1.16696    0.49252    0.46784   1.00
C3       1.33336    0.48851    0.46482   1.00
H1       1.22237    0.52558    0.55721   1.00
H1       1.28306    0.53522    0.55107   1.00
C5       1.22835    0.47698    0.43162   1.00
C5       1.26998    0.47282    0.43230   1.00
H1       1.15451    0.52685    0.55831   1.00
H1       1.35091    0.53373    0.54948   1.00
H1       1.15052    0.48353    0.44483   1.00
H1       1.34848    0.47675    0.44216   1.00
C6       1.20515    0.46690    0.39539   1.00
C6       1.29119    0.45168    0.39980   1.00
H2       1.18345    0.48959    0.39031   1.00
H2       1.31310    0.43246    0.41250   1.00
H2       1.22286    0.46900    0.36916   1.00
H2       1.27228    0.43095    0.38501   1.00
C6       1.18606    0.42537    0.39717   1.00
C6       1.30942    0.47994    0.36880   1.00
H2       1.17292    0.42088    0.42589   1.00
H2       1.32383    0.50422    0.38365   1.00
C6       1.15459    0.41522    0.36565   1.00
C6       1.33911    0.46221    0.33894   1.00
H2       1.20949    0.40383    0.39520   1.00
H2       1.28546    0.49315    0.35243   1.00
C6       1.11735    0.44052    0.37044   1.00
C6       1.37708    0.44836    0.35934   1.00
C6       1.17074    0.42025    0.32373   1.00
C6       1.32107    0.42770    0.31598   1.00
C6       1.14245    0.37187    0.37084   1.00
C6       1.35054    0.49438    0.30914   1.00
H2       1.10558    0.43810    0.39996   1.00
H2       1.39020    0.47190    0.37634   1.00
H2       1.12330    0.47121    0.36478   1.00
H2       1.37154    0.42402    0.37900   1.00
H2       1.09459    0.43140    0.35012   1.00
H2       1.39863    0.43857    0.33803   1.00
H2       1.14955    0.41046    0.30206   1.00
H2       1.34098    0.41738    0.29335   1.00
H2       1.17725    0.45078    0.31761   1.00
H2       1.31494    0.40315    0.33525   1.00
H2       1.19745    0.40337    0.31983   1.00
H2       1.29385    0.43646    0.30200   1.00
H2       1.13042    0.36681    0.39991   1.00
H2       1.36383    0.51933    0.32385   1.00
H2       1.12025    0.36345    0.34959   1.00
H2       1.37149    0.48345    0.28778   1.00
H2       1.16739    0.35245    0.36700   1.00
H2       1.32502    0.50482    0.29320   1.00
C4       1.00134    0.26975    0.50460   1.00
C4       1.00279    0.22809    0.50514   1.00
C3       0.96781    0.29103    0.51692   1.00
C3       0.97252    0.20496    0.52180   1.00
C3       1.03440    0.29146    0.49127   1.00
C3       1.03558    0.20830    0.48856   1.00
C2       0.99905    0.35405    0.50534   1.00
C2       1.00479    0.14378    0.50453   1.00
C3       0.96669    0.33189    0.51749   1.00
C3       0.97333    0.16409    0.52137   1.00
C3       1.03216    0.33304    0.49252   1.00
C3       1.03518    0.16664    0.48851   1.00
H1       0.94279    0.27763    0.52558   1.00
H1       0.94893    0.21694    0.53522   1.00
C5       1.06838    0.27165    0.47698   1.00
C5       1.06770    0.23002    0.47282   1.00
H1       0.94169    0.34549    0.52685   1.00
H1       0.95052    0.14909    0.53373   1.00
H1       1.05517    0.34948    0.48353   1.00
H1       1.05784    0.15152    0.47675   1.00
C6       1.10461    0.29485    0.46690   1.00
C6       1.10020    0.20881    0.45168   1.00
H2       1.10969    0.31655    0.48959   1.00
H2       1.08750    0.18690    0.43246   1.00
H2       1.13084    0.27714    0.46900   1.00
H2       1.11499    0.22772    0.43095   1.00
C6       1.10283    0.31394    0.42537   1.00
C6       1.13120    0.19058    0.47994   1.00
H2       1.07411    0.32708    0.42088   1.00
H2       1.11635    0.17617    0.50422   1.00
C6       1.13435    0.34541    0.41522   1.00
C6       1.16106    0.16089    0.46221   1.00
H2       1.10480    0.29051    0.40383   1.00
H2       1.14757    0.21454    0.49315   1.00
C6       1.12956    0.38265    0.44052   1.00
C6       1.14066    0.12292    0.44836   1.00
C6       1.17627    0.32926    0.42025   1.00
C6       1.18402    0.17893    0.42770   1.00
C6       1.12916    0.35755    0.37187   1.00
C6       1.19086    0.14946    0.49438   1.00
H2       1.10004    0.39442    0.43810   1.00
H2       1.12366    0.10980    0.47190   1.00
H2       1.13522    0.37670    0.47121   1.00
H2       1.12100    0.12846    0.42402   1.00
H2       1.14988    0.40541    0.43140   1.00
H2       1.16197    0.10137    0.43857   1.00
H2       1.19794    0.35045    0.41046   1.00
H2       1.20665    0.15902    0.41738   1.00
H2       1.18239    0.32275    0.45078   1.00
H2       1.16475    0.18506    0.40315   1.00
H2       1.18017    0.30255    0.40337   1.00
H2       1.19800    0.20615    0.43646   1.00
H2       1.10009    0.36958    0.36681   1.00
H2       1.17615    0.13617    0.51933   1.00
H2       1.15041    0.37975    0.36345   1.00
H2       1.21222    0.12851    0.48345   1.00
H2       1.13300    0.33261    0.35245   1.00
H2       1.20680    0.17498    0.50482   1.00
C4       1.00460    0.50134    0.26975   1.00
C4       1.00514    0.50279    0.22809   1.00
C3       1.01692    0.46781    0.29103   1.00
C3       1.02180    0.47252    0.20496   1.00
C3       0.99127    0.53440    0.29146   1.00
C3       0.98856    0.53558    0.20830   1.00
C2       1.00534    0.49905    0.35405   1.00
C2       1.00453    0.50479    0.14378   1.00
C3       1.01749    0.46669    0.33189   1.00
C3       1.02137    0.47333    0.16409   1.00
C3       0.99252    0.53216    0.33304   1.00
C3       0.98851    0.53518    0.16664   1.00
H1       1.02558    0.44279    0.27763   1.00
H1       1.03522    0.44893    0.21694   1.00
C5       0.97698    0.56838    0.27165   1.00
C5       0.97282    0.56770    0.23002   1.00
H1       1.02685    0.44169    0.34549   1.00
H1       1.03373    0.45052    0.14909   1.00
H1       0.98353    0.55517    0.34948   1.00
H1       0.97675    0.55784    0.15152   1.00
C6       0.96690    0.60461    0.29485   1.00
C6       0.95168    0.60020    0.20881   1.00
H2       0.98959    0.60969    0.31655   1.00
H2       0.93246    0.58750    0.18690   1.00
H2       0.96900    0.63084    0.27714   1.00
H2       0.93095    0.61499    0.22772   1.00
C6       0.92537    0.60283    0.31394   1.00
C6       0.97994    0.63120    0.19058   1.00
H2       0.92088    0.57411    0.32708   1.00
H2       1.00422    0.61635    0.17617   1.00
C6       0.91522    0.63435    0.34541   1.00
C6       0.96221    0.66106    0.16089   1.00
H2       0.90383    0.60480    0.29051   1.00
H2       0.99315    0.64757    0.21454   1.00
C6       0.94052    0.62956    0.38265   1.00
C6       0.94836    0.64066    0.12292   1.00
C6       0.92025    0.67627    0.32926   1.00
C6       0.92770    0.68402    0.17893   1.00
C6       0.87187    0.62916    0.35755   1.00
C6       0.99438    0.69086    0.14946   1.00
H2       0.93810    0.60004    0.39442   1.00
H2       0.97190    0.62366    0.10980   1.00
H2       0.97121    0.63522    0.37670   1.00
H2       0.92402    0.62100    0.12846   1.00
H2       0.93140    0.64988    0.40541   1.00
H2       0.93857    0.66197    0.10137   1.00
H2       0.91046    0.69794    0.35045   1.00
H2       0.91738    0.70665    0.15902   1.00
H2       0.95078    0.68239    0.32275   1.00
H2       0.90315    0.66475    0.18506   1.00
H2       0.90337    0.68017    0.30255   1.00
H2       0.93646    0.69800    0.20615   1.00
H2       0.86681    0.60009    0.36958   1.00
H2       1.01933    0.67615    0.13617   1.00
H2       0.86345    0.65041    0.37975   1.00
H2       0.98345    0.71222    0.12851   1.00
H2       0.85245    0.63300    0.33261   1.00
H2       1.00482    0.70680    0.17498   1.00
