data_IRMOF10_SG202_interpen_Ligand9lp_label_o.

_audit_creation_method             'generated by an auxiliary program of Tobunporous'

_symmetry_space_group_name_H-M     'P 1'
_symmetry_Int_Tables_number        1
_symmetry_cell_setting             triclinic

_cell_length_a                    34.2800
_cell_length_b                    34.2800
_cell_length_c                    34.2800
_cell_angle_alpha                 90.0000
_cell_angle_beta                  90.0000
_cell_angle_gamma                 90.0000

loop_
_atom_site_label
_atom_site_fract_x
_atom_site_fract_y
_atom_site_fract_z
_atom_site_occupancy
O1       0.75000    0.75000    0.75000   1.00
Zn1      0.71720    0.78280    0.78280   1.00
Zn1      0.78280    0.71720    0.78280   1.00
Zn1      0.78280    0.78280    0.71720   1.00
Zn1      0.71720    0.71720    0.71720   1.00
O2       0.72650    0.77350    0.83820   1.00
O2       0.72650    0.83820    0.77350   1.00
O2       0.66180    0.77350    0.77350   1.00
O2       0.77350    0.72650    0.83820   1.00
O2       0.83820    0.72650    0.77350   1.00
O2       0.77350    0.66180    0.77350   1.00
O2       0.77350    0.83820    0.72650   1.00
O2       0.83820    0.77350    0.72650   1.00
O2       0.77350    0.77350    0.66180   1.00
O2       0.66180    0.72650    0.72650   1.00
O2       0.72650    0.66180    0.72650   1.00
O2       0.72650    0.72650    0.66180   1.00
C1       0.75000    0.75000    0.85520   1.00
C1       0.75000    0.85520    0.75000   1.00
C1       0.64480    0.75000    0.75000   1.00
C1       0.85520    0.75000    0.75000   1.00
C1       0.75000    0.64480    0.75000   1.00
C1       0.75000    0.75000    0.64480   1.00
O1       0.25000    0.25000    0.75000   1.00
Zn1      0.21720    0.28280    0.78280   1.00
Zn1      0.28280    0.21720    0.78280   1.00
Zn1      0.28280    0.28280    0.71720   1.00
Zn1      0.21720    0.21720    0.71720   1.00
O2       0.22650    0.27350    0.83820   1.00
O2       0.22650    0.33820    0.77350   1.00
O2       0.16180    0.27350    0.77350   1.00
O2       0.27350    0.22650    0.83820   1.00
O2       0.33820    0.22650    0.77350   1.00
O2       0.27350    0.16180    0.77350   1.00
O2       0.27350    0.33820    0.72650   1.00
O2       0.33820    0.27350    0.72650   1.00
O2       0.27350    0.27350    0.66180   1.00
O2       0.16180    0.22650    0.72650   1.00
O2       0.22650    0.16180    0.72650   1.00
O2       0.22650    0.22650    0.66180   1.00
C1       0.25000    0.25000    0.85520   1.00
C1       0.25000    0.35520    0.75000   1.00
C1       0.14480    0.25000    0.75000   1.00
C1       0.35520    0.25000    0.75000   1.00
C1       0.25000    0.14480    0.75000   1.00
C1       0.25000    0.25000    0.64480   1.00
O1       0.25000    0.75000    0.25000   1.00
Zn1      0.21720    0.78280    0.28280   1.00
Zn1      0.28280    0.71720    0.28280   1.00
Zn1      0.28280    0.78280    0.21720   1.00
Zn1      0.21720    0.71720    0.21720   1.00
O2       0.22650    0.77350    0.33820   1.00
O2       0.22650    0.83820    0.27350   1.00
O2       0.16180    0.77350    0.27350   1.00
O2       0.27350    0.72650    0.33820   1.00
O2       0.33820    0.72650    0.27350   1.00
O2       0.27350    0.66180    0.27350   1.00
O2       0.27350    0.83820    0.22650   1.00
O2       0.33820    0.77350    0.22650   1.00
O2       0.27350    0.77350    0.16180   1.00
O2       0.16180    0.72650    0.22650   1.00
O2       0.22650    0.66180    0.22650   1.00
O2       0.22650    0.72650    0.16180   1.00
C1       0.25000    0.75000    0.35520   1.00
C1       0.25000    0.85520    0.25000   1.00
C1       0.14480    0.75000    0.25000   1.00
C1       0.35520    0.75000    0.25000   1.00
C1       0.25000    0.64480    0.25000   1.00
C1       0.25000    0.75000    0.14480   1.00
O1       0.75000    0.25000    0.25000   1.00
Zn1      0.71720    0.28280    0.28280   1.00
Zn1      0.78280    0.21720    0.28280   1.00
Zn1      0.78280    0.28280    0.21720   1.00
Zn1      0.71720    0.21720    0.21720   1.00
O2       0.72650    0.27350    0.33820   1.00
O2       0.72650    0.33820    0.27350   1.00
O2       0.66180    0.27350    0.27350   1.00
O2       0.77350    0.22650    0.33820   1.00
O2       0.83820    0.22650    0.27350   1.00
O2       0.77350    0.16180    0.27350   1.00
O2       0.77350    0.33820    0.22650   1.00
O2       0.83820    0.27350    0.22650   1.00
O2       0.77350    0.27350    0.16180   1.00
O2       0.66180    0.22650    0.22650   1.00
O2       0.72650    0.16180    0.22650   1.00
O2       0.72650    0.22650    0.16180   1.00
C1       0.75000    0.25000    0.35520   1.00
C1       0.75000    0.35520    0.25000   1.00
C1       0.64480    0.25000    0.25000   1.00
C1       0.85520    0.25000    0.25000   1.00
C1       0.75000    0.14480    0.25000   1.00
C1       0.75000    0.25000    0.14480   1.00
O1       0.25000    0.25000    0.25000   1.00
Zn1      0.28280    0.21720    0.21720   1.00
Zn1      0.21720    0.28280    0.21720   1.00
Zn1      0.21720    0.21720    0.28280   1.00
Zn1      0.28280    0.28280    0.28280   1.00
O2       0.27350    0.22650    0.16180   1.00
O2       0.27350    0.16180    0.22650   1.00
O2       0.33820    0.22650    0.22650   1.00
O2       0.22650    0.27350    0.16180   1.00
O2       0.16180    0.27350    0.22650   1.00
O2       0.22650    0.33820    0.22650   1.00
O2       0.22650    0.16180    0.27350   1.00
O2       0.16180    0.22650    0.27350   1.00
O2       0.22650    0.22650    0.33820   1.00
O2       0.33820    0.27350    0.27350   1.00
O2       0.27350    0.33820    0.27350   1.00
O2       0.27350    0.27350    0.33820   1.00
C1       0.25000    0.25000    0.14480   1.00
C1       0.25000    0.14480    0.25000   1.00
C1       0.35520    0.25000    0.25000   1.00
C1       0.14480    0.25000    0.25000   1.00
C1       0.25000    0.35520    0.25000   1.00
C1       0.25000    0.25000    0.35520   1.00
O1       0.75000    0.75000    0.25000   1.00
Zn1      0.78280    0.71720    0.21720   1.00
Zn1      0.71720    0.78280    0.21720   1.00
Zn1      0.71720    0.71720    0.28280   1.00
Zn1      0.78280    0.78280    0.28280   1.00
O2       0.77350    0.72650    0.16180   1.00
O2       0.77350    0.66180    0.22650   1.00
O2       0.83820    0.72650    0.22650   1.00
O2       0.72650    0.77350    0.16180   1.00
O2       0.66180    0.77350    0.22650   1.00
O2       0.72650    0.83820    0.22650   1.00
O2       0.72650    0.66180    0.27350   1.00
O2       0.66180    0.72650    0.27350   1.00
O2       0.72650    0.72650    0.33820   1.00
O2       0.83820    0.77350    0.27350   1.00
O2       0.77350    0.83820    0.27350   1.00
O2       0.77350    0.77350    0.33820   1.00
C1       0.75000    0.75000    0.14480   1.00
C1       0.75000    0.64480    0.25000   1.00
C1       0.85520    0.75000    0.25000   1.00
C1       0.64480    0.75000    0.25000   1.00
C1       0.75000    0.85520    0.25000   1.00
C1       0.75000    0.75000    0.35520   1.00
O1       0.75000    0.25000    0.75000   1.00
Zn1      0.78280    0.21720    0.71720   1.00
Zn1      0.71720    0.28280    0.71720   1.00
Zn1      0.71720    0.21720    0.78280   1.00
Zn1      0.78280    0.28280    0.78280   1.00
O2       0.77350    0.22650    0.66180   1.00
O2       0.77350    0.16180    0.72650   1.00
O2       0.83820    0.22650    0.72650   1.00
O2       0.72650    0.27350    0.66180   1.00
O2       0.66180    0.27350    0.72650   1.00
O2       0.72650    0.33820    0.72650   1.00
O2       0.72650    0.16180    0.77350   1.00
O2       0.66180    0.22650    0.77350   1.00
O2       0.72650    0.22650    0.83820   1.00
O2       0.83820    0.27350    0.77350   1.00
O2       0.77350    0.33820    0.77350   1.00
O2       0.77350    0.27350    0.83820   1.00
C1       0.75000    0.25000    0.64480   1.00
C1       0.75000    0.14480    0.75000   1.00
C1       0.85520    0.25000    0.75000   1.00
C1       0.64480    0.25000    0.75000   1.00
C1       0.75000    0.35520    0.75000   1.00
C1       0.75000    0.25000    0.85520   1.00
O1       0.25000    0.75000    0.75000   1.00
Zn1      0.28280    0.71720    0.71720   1.00
Zn1      0.21720    0.78280    0.71720   1.00
Zn1      0.21720    0.71720    0.78280   1.00
Zn1      0.28280    0.78280    0.78280   1.00
O2       0.27350    0.72650    0.66180   1.00
O2       0.27350    0.66180    0.72650   1.00
O2       0.33820    0.72650    0.72650   1.00
O2       0.22650    0.77350    0.66180   1.00
O2       0.16180    0.77350    0.72650   1.00
O2       0.22650    0.83820    0.72650   1.00
O2       0.22650    0.66180    0.77350   1.00
O2       0.16180    0.72650    0.77350   1.00
O2       0.22650    0.72650    0.83820   1.00
O2       0.33820    0.77350    0.77350   1.00
O2       0.27350    0.83820    0.77350   1.00
O2       0.27350    0.77350    0.83820   1.00
C1       0.25000    0.75000    0.64480   1.00
C1       0.25000    0.64480    0.75000   1.00
C1       0.35520    0.75000    0.75000   1.00
C1       0.14480    0.75000    0.75000   1.00
C1       0.25000    0.85520    0.75000   1.00
C1       0.25000    0.75000    0.85520   1.00
O1       1.00000    1.00000    1.00000   1.00
Zn1      0.96720    1.03280    1.03280   1.00
Zn1      1.03280    0.96720    1.03280   1.00
Zn1      1.03280    1.03280    0.96720   1.00
Zn1      0.96720    0.96720    0.96720   1.00
O2       0.97650    1.02350    1.08820   1.00
O2       0.97650    1.08820    1.02350   1.00
O2       0.91180    1.02350    1.02350   1.00
O2       1.02350    0.97650    1.08820   1.00
O2       1.08820    0.97650    1.02350   1.00
O2       1.02350    0.91180    1.02350   1.00
O2       1.02350    1.08820    0.97650   1.00
O2       1.08820    1.02350    0.97650   1.00
O2       1.02350    1.02350    0.91180   1.00
O2       0.91180    0.97650    0.97650   1.00
O2       0.97650    0.91180    0.97650   1.00
O2       0.97650    0.97650    0.91180   1.00
C1       1.00000    1.00000    1.10520   1.00
C1       1.00000    1.10520    1.00000   1.00
C1       0.89480    1.00000    1.00000   1.00
C1       1.10520    1.00000    1.00000   1.00
C1       1.00000    0.89480    1.00000   1.00
C1       1.00000    1.00000    0.89480   1.00
O1       0.50000    0.50000    1.00000   1.00
Zn1      0.46720    0.53280    1.03280   1.00
Zn1      0.53280    0.46720    1.03280   1.00
Zn1      0.53280    0.53280    0.96720   1.00
Zn1      0.46720    0.46720    0.96720   1.00
O2       0.47650    0.52350    1.08820   1.00
O2       0.47650    0.58820    1.02350   1.00
O2       0.41180    0.52350    1.02350   1.00
O2       0.52350    0.47650    1.08820   1.00
O2       0.58820    0.47650    1.02350   1.00
O2       0.52350    0.41180    1.02350   1.00
O2       0.52350    0.58820    0.97650   1.00
O2       0.58820    0.52350    0.97650   1.00
O2       0.52350    0.52350    0.91180   1.00
O2       0.41180    0.47650    0.97650   1.00
O2       0.47650    0.41180    0.97650   1.00
O2       0.47650    0.47650    0.91180   1.00
C1       0.50000    0.50000    1.10520   1.00
C1       0.50000    0.60520    1.00000   1.00
C1       0.39480    0.50000    1.00000   1.00
C1       0.60520    0.50000    1.00000   1.00
C1       0.50000    0.39480    1.00000   1.00
C1       0.50000    0.50000    0.89480   1.00
O1       0.50000    1.00000    0.50000   1.00
Zn1      0.46720    1.03280    0.53280   1.00
Zn1      0.53280    0.96720    0.53280   1.00
Zn1      0.53280    1.03280    0.46720   1.00
Zn1      0.46720    0.96720    0.46720   1.00
O2       0.47650    1.02350    0.58820   1.00
O2       0.47650    1.08820    0.52350   1.00
O2       0.41180    1.02350    0.52350   1.00
O2       0.52350    0.97650    0.58820   1.00
O2       0.58820    0.97650    0.52350   1.00
O2       0.52350    0.91180    0.52350   1.00
O2       0.52350    1.08820    0.47650   1.00
O2       0.58820    1.02350    0.47650   1.00
O2       0.52350    1.02350    0.41180   1.00
O2       0.41180    0.97650    0.47650   1.00
O2       0.47650    0.91180    0.47650   1.00
O2       0.47650    0.97650    0.41180   1.00
C1       0.50000    1.00000    0.60520   1.00
C1       0.50000    1.10520    0.50000   1.00
C1       0.39480    1.00000    0.50000   1.00
C1       0.60520    1.00000    0.50000   1.00
C1       0.50000    0.89480    0.50000   1.00
C1       0.50000    1.00000    0.39480   1.00
O1       1.00000    0.50000    0.50000   1.00
Zn1      0.96720    0.53280    0.53280   1.00
Zn1      1.03280    0.46720    0.53280   1.00
Zn1      1.03280    0.53280    0.46720   1.00
Zn1      0.96720    0.46720    0.46720   1.00
O2       0.97650    0.52350    0.58820   1.00
O2       0.97650    0.58820    0.52350   1.00
O2       0.91180    0.52350    0.52350   1.00
O2       1.02350    0.47650    0.58820   1.00
O2       1.08820    0.47650    0.52350   1.00
O2       1.02350    0.41180    0.52350   1.00
O2       1.02350    0.58820    0.47650   1.00
O2       1.08820    0.52350    0.47650   1.00
O2       1.02350    0.52350    0.41180   1.00
O2       0.91180    0.47650    0.47650   1.00
O2       0.97650    0.41180    0.47650   1.00
O2       0.97650    0.47650    0.41180   1.00
C1       1.00000    0.50000    0.60520   1.00
C1       1.00000    0.60520    0.50000   1.00
C1       0.89480    0.50000    0.50000   1.00
C1       1.10520    0.50000    0.50000   1.00
C1       1.00000    0.39480    0.50000   1.00
C1       1.00000    0.50000    0.39480   1.00
O1       0.50000    0.50000    0.50000   1.00
Zn1      0.53280    0.46720    0.46720   1.00
Zn1      0.46720    0.53280    0.46720   1.00
Zn1      0.46720    0.46720    0.53280   1.00
Zn1      0.53280    0.53280    0.53280   1.00
O2       0.52350    0.47650    0.41180   1.00
O2       0.52350    0.41180    0.47650   1.00
O2       0.58820    0.47650    0.47650   1.00
O2       0.47650    0.52350    0.41180   1.00
O2       0.41180    0.52350    0.47650   1.00
O2       0.47650    0.58820    0.47650   1.00
O2       0.47650    0.41180    0.52350   1.00
O2       0.41180    0.47650    0.52350   1.00
O2       0.47650    0.47650    0.58820   1.00
O2       0.58820    0.52350    0.52350   1.00
O2       0.52350    0.58820    0.52350   1.00
O2       0.52350    0.52350    0.58820   1.00
C1       0.50000    0.50000    0.39480   1.00
C1       0.50000    0.39480    0.50000   1.00
C1       0.60520    0.50000    0.50000   1.00
C1       0.39480    0.50000    0.50000   1.00
C1       0.50000    0.60520    0.50000   1.00
C1       0.50000    0.50000    0.60520   1.00
O1       1.00000    1.00000    0.50000   1.00
Zn1      1.03280    0.96720    0.46720   1.00
Zn1      0.96720    1.03280    0.46720   1.00
Zn1      0.96720    0.96720    0.53280   1.00
Zn1      1.03280    1.03280    0.53280   1.00
O2       1.02350    0.97650    0.41180   1.00
O2       1.02350    0.91180    0.47650   1.00
O2       1.08820    0.97650    0.47650   1.00
O2       0.97650    1.02350    0.41180   1.00
O2       0.91180    1.02350    0.47650   1.00
O2       0.97650    1.08820    0.47650   1.00
O2       0.97650    0.91180    0.52350   1.00
O2       0.91180    0.97650    0.52350   1.00
O2       0.97650    0.97650    0.58820   1.00
O2       1.08820    1.02350    0.52350   1.00
O2       1.02350    1.08820    0.52350   1.00
O2       1.02350    1.02350    0.58820   1.00
C1       1.00000    1.00000    0.39480   1.00
C1       1.00000    0.89480    0.50000   1.00
C1       1.10520    1.00000    0.50000   1.00
C1       0.89480    1.00000    0.50000   1.00
C1       1.00000    1.10520    0.50000   1.00
C1       1.00000    1.00000    0.60520   1.00
O1       1.00000    0.50000    1.00000   1.00
Zn1      1.03280    0.46720    0.96720   1.00
Zn1      0.96720    0.53280    0.96720   1.00
Zn1      0.96720    0.46720    1.03280   1.00
Zn1      1.03280    0.53280    1.03280   1.00
O2       1.02350    0.47650    0.91180   1.00
O2       1.02350    0.41180    0.97650   1.00
O2       1.08820    0.47650    0.97650   1.00
O2       0.97650    0.52350    0.91180   1.00
O2       0.91180    0.52350    0.97650   1.00
O2       0.97650    0.58820    0.97650   1.00
O2       0.97650    0.41180    1.02350   1.00
O2       0.91180    0.47650    1.02350   1.00
O2       0.97650    0.47650    1.08820   1.00
O2       1.08820    0.52350    1.02350   1.00
O2       1.02350    0.58820    1.02350   1.00
O2       1.02350    0.52350    1.08820   1.00
C1       1.00000    0.50000    0.89480   1.00
C1       1.00000    0.39480    1.00000   1.00
C1       1.10520    0.50000    1.00000   1.00
C1       0.89480    0.50000    1.00000   1.00
C1       1.00000    0.60520    1.00000   1.00
C1       1.00000    0.50000    1.10520   1.00
O1       0.50000    1.00000    1.00000   1.00
Zn1      0.53280    0.96720    0.96720   1.00
Zn1      0.46720    1.03280    0.96720   1.00
Zn1      0.46720    0.96720    1.03280   1.00
Zn1      0.53280    1.03280    1.03280   1.00
O2       0.52350    0.97650    0.91180   1.00
O2       0.52350    0.91180    0.97650   1.00
O2       0.58820    0.97650    0.97650   1.00
O2       0.47650    1.02350    0.91180   1.00
O2       0.41180    1.02350    0.97650   1.00
O2       0.47650    1.08820    0.97650   1.00
O2       0.47650    0.91180    1.02350   1.00
O2       0.41180    0.97650    1.02350   1.00
O2       0.47650    0.97650    1.08820   1.00
O2       0.58820    1.02350    1.02350   1.00
O2       0.52350    1.08820    1.02350   1.00
O2       0.52350    1.02350    1.08820   1.00
C1       0.50000    1.00000    0.89480   1.00
C1       0.50000    0.89480    1.00000   1.00
C1       0.60520    1.00000    1.00000   1.00
C1       0.39480    1.00000    1.00000   1.00
C1       0.50000    1.10520    1.00000   1.00
C1       0.50000    1.00000    1.10520   1.00
C4       0.74968    0.74930    0.97917   1.00
C4       0.75032    0.75070    1.02083   1.00
C3       0.71995    0.72942    0.95846   1.00
C3       0.71594    0.75531    1.04321   1.00
C3       0.77832    0.76858    0.95643   1.00
C3       0.78563    0.74654    1.04187   1.00
C2       0.74753    0.74820    0.89487   1.00
C2       0.75217    0.75169    1.10514   1.00
C3       0.71900    0.72889    0.91715   1.00
C3       0.71693    0.75584    1.08449   1.00
C3       0.77720    0.76798    0.91514   1.00
C3a      0.78675    0.74706    1.08328   1.00
H1       0.69746    0.71385    0.97425   1.00
H1       0.68810    0.75901    1.02875   1.00
H1       0.69583    0.71330    0.90240   1.00
H1       0.68999    0.75961    1.10056   1.00
H1       0.79952    0.78326    0.89882   1.00
C5       0.82529    0.74223    1.10380   1.00
H1       0.81275    0.74259    1.02622   1.00
H1       0.80135    0.78493    0.97059   1.00
H2       0.82165    0.74396    1.13599   1.00
H2       0.83698    0.71273    1.09705   1.00
N1       0.85284    0.77234    1.09125   1.00
C6       0.84870    0.81106    1.09644   1.00
C6       0.88707    0.76645    1.07288   1.00
C6       0.88055    0.83022    1.08102   1.00
C6       0.90496    0.80184    1.06604   1.00
H3       0.82390    0.82472    1.11049   1.00
H3       0.89853    0.73814    1.06484   1.00
H3       0.88545    0.86138    1.08076   1.00
H3       0.93272    0.80646    1.05180   1.00
C4       0.74930    0.97917    0.74968   1.00
C4       0.75070    1.02083    0.75032   1.00
C3       0.72942    0.95846    0.71995   1.00
C3       0.75531    1.04321    0.71594   1.00
C3       0.76858    0.95643    0.77832   1.00
C3       0.74654    1.04187    0.78563   1.00
C2       0.74820    0.89487    0.74753   1.00
C2       0.75169    1.10514    0.75217   1.00
C3       0.72889    0.91715    0.71900   1.00
C3       0.75584    1.08449    0.71693   1.00
C3       0.76798    0.91514    0.77720   1.00
C3a      0.74706    1.08328    0.78675   1.00
H1       0.71385    0.97425    0.69746   1.00
H1       0.75901    1.02875    0.68810   1.00
H1       0.71330    0.90240    0.69583   1.00
H1       0.75961    1.10056    0.68999   1.00
H1       0.78326    0.89882    0.79952   1.00
C5       0.74223    1.10380    0.82529   1.00
H1       0.74259    1.02622    0.81275   1.00
H1       0.78493    0.97059    0.80135   1.00
H2       0.74396    1.13599    0.82165   1.00
H2       0.71273    1.09705    0.83698   1.00
N1       0.77234    1.09125    0.85284   1.00
C6       0.81106    1.09644    0.84870   1.00
C6       0.76645    1.07288    0.88707   1.00
C6       0.83022    1.08102    0.88055   1.00
C6       0.80184    1.06604    0.90496   1.00
H3       0.82472    1.11049    0.82390   1.00
H3       0.73814    1.06484    0.89853   1.00
H3       0.86138    1.08076    0.88545   1.00
H3       0.80646    1.05180    0.93272   1.00
C4       0.52083    0.74968    0.75070   1.00
C4       0.47917    0.75032    0.74930   1.00
C3       0.54154    0.71995    0.77058   1.00
C3       0.45679    0.71594    0.74469   1.00
C3       0.54357    0.77832    0.73142   1.00
C3       0.45813    0.78563    0.75346   1.00
C2       0.60513    0.74753    0.75180   1.00
C2       0.39486    0.75217    0.74831   1.00
C3       0.58285    0.71900    0.77111   1.00
C3       0.41551    0.71693    0.74416   1.00
C3       0.58486    0.77720    0.73202   1.00
C3a      0.41672    0.78675    0.75294   1.00
H1       0.52575    0.69746    0.78615   1.00
H1       0.47125    0.68810    0.74099   1.00
H1       0.59760    0.69583    0.78670   1.00
H1       0.39944    0.68999    0.74039   1.00
H1       0.60118    0.79952    0.71674   1.00
C5       0.39620    0.82529    0.75777   1.00
H1       0.47378    0.81275    0.75741   1.00
H1       0.52941    0.80135    0.71507   1.00
H2       0.36401    0.82165    0.75604   1.00
H2       0.40295    0.83698    0.78727   1.00
N1       0.40875    0.85284    0.72766   1.00
C6       0.40356    0.84870    0.68894   1.00
C6       0.42712    0.88707    0.73355   1.00
C6       0.41898    0.88055    0.66978   1.00
C6       0.43396    0.90496    0.69816   1.00
H3       0.38951    0.82390    0.67528   1.00
H3       0.43516    0.89853    0.76186   1.00
H3       0.41924    0.88545    0.63862   1.00
H3       0.44820    0.93272    0.69354   1.00
C4       0.97917    0.74968    0.74930   1.00
C4       1.02083    0.75032    0.75070   1.00
C3       0.95846    0.71995    0.72942   1.00
C3       1.04321    0.71594    0.75531   1.00
C3       0.95643    0.77832    0.76858   1.00
C3       1.04187    0.78563    0.74654   1.00
C2       0.89487    0.74753    0.74820   1.00
C2       1.10514    0.75217    0.75169   1.00
C3       0.91715    0.71900    0.72889   1.00
C3       1.08449    0.71693    0.75584   1.00
C3       0.91514    0.77720    0.76798   1.00
C3a      1.08328    0.78675    0.74706   1.00
H1       0.97425    0.69746    0.71385   1.00
H1       1.02875    0.68810    0.75901   1.00
H1       0.90240    0.69583    0.71330   1.00
H1       1.10056    0.68999    0.75961   1.00
H1       0.89882    0.79952    0.78326   1.00
C5       1.10380    0.82529    0.74223   1.00
H1       1.02622    0.81275    0.74259   1.00
H1       0.97059    0.80135    0.78493   1.00
H2       1.13599    0.82165    0.74396   1.00
H2       1.09705    0.83698    0.71273   1.00
N1       1.09125    0.85284    0.77234   1.00
C6       1.09644    0.84870    0.81106   1.00
C6       1.07288    0.88707    0.76645   1.00
C6       1.08102    0.88055    0.83022   1.00
C6       1.06604    0.90496    0.80184   1.00
H3       1.11049    0.82390    0.82472   1.00
H3       1.06484    0.89853    0.73814   1.00
H3       1.08076    0.88545    0.86138   1.00
H3       1.05180    0.93272    0.80646   1.00
C4       0.75070    0.52083    0.74968   1.00
C4       0.74930    0.47917    0.75032   1.00
C3       0.77058    0.54154    0.71995   1.00
C3       0.74469    0.45679    0.71594   1.00
C3       0.73142    0.54357    0.77832   1.00
C3       0.75346    0.45813    0.78563   1.00
C2       0.75180    0.60513    0.74753   1.00
C2       0.74831    0.39486    0.75217   1.00
C3       0.77111    0.58285    0.71900   1.00
C3       0.74416    0.41551    0.71693   1.00
C3       0.73202    0.58486    0.77720   1.00
C3a      0.75294    0.41672    0.78675   1.00
H1       0.78615    0.52575    0.69746   1.00
H1       0.74099    0.47125    0.68810   1.00
H1       0.78670    0.59760    0.69583   1.00
H1       0.74039    0.39944    0.68999   1.00
H1       0.71674    0.60118    0.79952   1.00
C5       0.75777    0.39620    0.82529   1.00
H1       0.75741    0.47378    0.81275   1.00
H1       0.71507    0.52941    0.80135   1.00
H2       0.75604    0.36401    0.82165   1.00
H2       0.78727    0.40295    0.83698   1.00
N1       0.72766    0.40875    0.85284   1.00
C6       0.68894    0.40356    0.84870   1.00
C6       0.73355    0.42712    0.88707   1.00
C6       0.66978    0.41898    0.88055   1.00
C6       0.69816    0.43396    0.90496   1.00
H3       0.67528    0.38951    0.82390   1.00
H3       0.76186    0.43516    0.89853   1.00
H3       0.63862    0.41924    0.88545   1.00
H3       0.69354    0.44820    0.93272   1.00
C4       0.74968    0.75070    0.52083   1.00
C4       0.75032    0.74930    0.47917   1.00
C3       0.71995    0.77058    0.54154   1.00
C3       0.71594    0.74469    0.45679   1.00
C3       0.77832    0.73142    0.54357   1.00
C3       0.78563    0.75346    0.45813   1.00
C2       0.74753    0.75180    0.60513   1.00
C2       0.75217    0.74831    0.39486   1.00
C3       0.71900    0.77111    0.58285   1.00
C3       0.71693    0.74416    0.41551   1.00
C3       0.77720    0.73202    0.58486   1.00
C3a      0.78675    0.75294    0.41672   1.00
H1       0.69746    0.78615    0.52575   1.00
H1       0.68810    0.74099    0.47125   1.00
H1       0.69583    0.78670    0.59760   1.00
H1       0.68999    0.74039    0.39944   1.00
H1       0.79952    0.71674    0.60118   1.00
C5       0.82529    0.75777    0.39620   1.00
H1       0.81275    0.75741    0.47378   1.00
H1       0.80135    0.71507    0.52941   1.00
H2       0.82165    0.75604    0.36401   1.00
H2       0.83698    0.78727    0.40295   1.00
N1       0.85284    0.72766    0.40875   1.00
C6       0.84870    0.68894    0.40356   1.00
C6       0.88707    0.73355    0.42712   1.00
C6       0.88055    0.66978    0.41898   1.00
C6       0.90496    0.69816    0.43396   1.00
H3       0.82390    0.67528    0.38951   1.00
H3       0.89853    0.76186    0.43516   1.00
H3       0.88545    0.63862    0.41924   1.00
H3       0.93272    0.69354    0.44820   1.00
C4       0.24968    0.24930    0.97917   1.00
C4       0.25032    0.25070    1.02083   1.00
C3       0.21995    0.22942    0.95846   1.00
C3       0.21594    0.25531    1.04321   1.00
C3       0.27832    0.26858    0.95643   1.00
C3       0.28563    0.24654    1.04187   1.00
C2       0.24753    0.24820    0.89487   1.00
C2       0.25217    0.25169    1.10514   1.00
C3       0.21900    0.22889    0.91715   1.00
C3       0.21693    0.25584    1.08449   1.00
C3       0.27720    0.26798    0.91514   1.00
C3a      0.28675    0.24706    1.08328   1.00
H1       0.19746    0.21385    0.97425   1.00
H1       0.18810    0.25901    1.02875   1.00
H1       0.19583    0.21330    0.90240   1.00
H1       0.18999    0.25961    1.10056   1.00
H1       0.29952    0.28326    0.89882   1.00
C5       0.32529    0.24223    1.10380   1.00
H1       0.31275    0.24259    1.02622   1.00
H1       0.30135    0.28493    0.97059   1.00
H2       0.32165    0.24396    1.13599   1.00
H2       0.33698    0.21273    1.09705   1.00
N1       0.35284    0.27234    1.09125   1.00
C6       0.34870    0.31106    1.09644   1.00
C6       0.38707    0.26645    1.07288   1.00
C6       0.38055    0.33022    1.08102   1.00
C6       0.40496    0.30184    1.06604   1.00
H3       0.32390    0.32472    1.11049   1.00
H3       0.39853    0.23814    1.06484   1.00
H3       0.38545    0.36138    1.08076   1.00
H3       0.43272    0.30646    1.05180   1.00
C4       0.24930    0.47917    0.74968   1.00
C4       0.25070    0.52083    0.75032   1.00
C3       0.22942    0.45846    0.71995   1.00
C3       0.25531    0.54321    0.71594   1.00
C3       0.26858    0.45643    0.77832   1.00
C3       0.24654    0.54187    0.78563   1.00
C2       0.24820    0.39487    0.74753   1.00
C2       0.25169    0.60514    0.75217   1.00
C3       0.22889    0.41715    0.71900   1.00
C3       0.25584    0.58449    0.71693   1.00
C3       0.26798    0.41514    0.77720   1.00
C3a      0.24706    0.58328    0.78675   1.00
H1       0.21385    0.47425    0.69746   1.00
H1       0.25901    0.52875    0.68810   1.00
H1       0.21330    0.40240    0.69583   1.00
H1       0.25961    0.60056    0.68999   1.00
H1       0.28326    0.39882    0.79952   1.00
C5       0.24223    0.60380    0.82529   1.00
H1       0.24259    0.52622    0.81275   1.00
H1       0.28493    0.47059    0.80135   1.00
H2       0.24396    0.63599    0.82165   1.00
H2       0.21273    0.59705    0.83698   1.00
N1       0.27234    0.59125    0.85284   1.00
C6       0.31106    0.59644    0.84870   1.00
C6       0.26645    0.57288    0.88707   1.00
C6       0.33022    0.58102    0.88055   1.00
C6       0.30184    0.56604    0.90496   1.00
H3       0.32472    0.61049    0.82390   1.00
H3       0.23814    0.56484    0.89853   1.00
H3       0.36138    0.58076    0.88545   1.00
H3       0.30646    0.55180    0.93272   1.00
C4       0.02083    0.24968    0.75070   1.00
C4       -0.02083   0.25032    0.74930   1.00
C3       0.04154    0.21995    0.77058   1.00
C3       -0.04321   0.21594    0.74469   1.00
C3       0.04357    0.27832    0.73142   1.00
C3       -0.04187   0.28563    0.75346   1.00
C2       0.10513    0.24753    0.75180   1.00
C2       -0.10514   0.25217    0.74831   1.00
C3       0.08285    0.21900    0.77111   1.00
C3       -0.08449   0.21693    0.74416   1.00
C3       0.08486    0.27720    0.73202   1.00
C3a      -0.08328   0.28675    0.75294   1.00
H1       0.02575    0.19746    0.78615   1.00
H1       -0.02875   0.18810    0.74099   1.00
H1       0.09760    0.19583    0.78670   1.00
H1       -0.10056   0.18999    0.74039   1.00
H1       0.10118    0.29952    0.71674   1.00
C5       -0.10380   0.32529    0.75777   1.00
H1       -0.02622   0.31275    0.75741   1.00
H1       0.02941    0.30135    0.71507   1.00
H2       -0.13599   0.32165    0.75604   1.00
H2       -0.09705   0.33698    0.78727   1.00
N1       -0.09125   0.35284    0.72766   1.00
C6       -0.09644   0.34870    0.68894   1.00
C6       -0.07288   0.38707    0.73355   1.00
C6       -0.08102   0.38055    0.66978   1.00
C6       -0.06604   0.40496    0.69816   1.00
H3       -0.11049   0.32390    0.67528   1.00
H3       -0.06484   0.39853    0.76186   1.00
H3       -0.08076   0.38545    0.63862   1.00
H3       -0.05180   0.43272    0.69354   1.00
C4       0.47917    0.24968    0.74930   1.00
C4       0.52083    0.25032    0.75070   1.00
C3       0.45846    0.21995    0.72942   1.00
C3       0.54321    0.21594    0.75531   1.00
C3       0.45643    0.27832    0.76858   1.00
C3       0.54187    0.28563    0.74654   1.00
C2       0.39487    0.24753    0.74820   1.00
C2       0.60514    0.25217    0.75169   1.00
C3       0.41715    0.21900    0.72889   1.00
C3       0.58449    0.21693    0.75584   1.00
C3       0.41514    0.27720    0.76798   1.00
C3a      0.58328    0.28675    0.74706   1.00
H1       0.47425    0.19746    0.71385   1.00
H1       0.52875    0.18810    0.75901   1.00
H1       0.40240    0.19583    0.71330   1.00
H1       0.60056    0.18999    0.75961   1.00
H1       0.39882    0.29952    0.78326   1.00
C5       0.60380    0.32529    0.74223   1.00
H1       0.52622    0.31275    0.74259   1.00
H1       0.47059    0.30135    0.78493   1.00
H2       0.63599    0.32165    0.74396   1.00
H2       0.59705    0.33698    0.71273   1.00
N1       0.59125    0.35284    0.77234   1.00
C6       0.59644    0.34870    0.81106   1.00
C6       0.57288    0.38707    0.76645   1.00
C6       0.58102    0.38055    0.83022   1.00
C6       0.56604    0.40496    0.80184   1.00
H3       0.61049    0.32390    0.82472   1.00
H3       0.56484    0.39853    0.73814   1.00
H3       0.58076    0.38545    0.86138   1.00
H3       0.55180    0.43272    0.80646   1.00
C4       0.25070    0.02083    0.74968   1.00
C4       0.24930    -0.02083   0.75032   1.00
C3       0.27058    0.04154    0.71995   1.00
C3       0.24469    -0.04321   0.71594   1.00
C3       0.23142    0.04357    0.77832   1.00
C3       0.25346    -0.04187   0.78563   1.00
C2       0.25180    0.10513    0.74753   1.00
C2       0.24831    -0.10514   0.75217   1.00
C3       0.27111    0.08285    0.71900   1.00
C3       0.24416    -0.08449   0.71693   1.00
C3       0.23202    0.08486    0.77720   1.00
C3a      0.25294    -0.08328   0.78675   1.00
H1       0.28615    0.02575    0.69746   1.00
H1       0.24099    -0.02875   0.68810   1.00
H1       0.28670    0.09760    0.69583   1.00
H1       0.24039    -0.10056   0.68999   1.00
H1       0.21674    0.10118    0.79952   1.00
C5       0.25777    -0.10380   0.82529   1.00
H1       0.25741    -0.02622   0.81275   1.00
H1       0.21507    0.02941    0.80135   1.00
H2       0.25604    -0.13599   0.82165   1.00
H2       0.28727    -0.09705   0.83698   1.00
N1       0.22766    -0.09125   0.85284   1.00
C6       0.18894    -0.09644   0.84870   1.00
C6       0.23355    -0.07288   0.88707   1.00
C6       0.16978    -0.08102   0.88055   1.00
C6       0.19816    -0.06604   0.90496   1.00
H3       0.17528    -0.11049   0.82390   1.00
H3       0.26186    -0.06484   0.89853   1.00
H3       0.13862    -0.08076   0.88545   1.00
H3       0.19354    -0.05180   0.93272   1.00
C4       0.24968    0.25070    0.52083   1.00
C4       0.25032    0.24930    0.47917   1.00
C3       0.21995    0.27058    0.54154   1.00
C3       0.21594    0.24469    0.45679   1.00
C3       0.27832    0.23142    0.54357   1.00
C3       0.28563    0.25346    0.45813   1.00
C2       0.24753    0.25180    0.60513   1.00
C2       0.25217    0.24831    0.39486   1.00
C3       0.21900    0.27111    0.58285   1.00
C3       0.21693    0.24416    0.41551   1.00
C3       0.27720    0.23202    0.58486   1.00
C3a      0.28675    0.25294    0.41672   1.00
H1       0.19746    0.28615    0.52575   1.00
H1       0.18810    0.24099    0.47125   1.00
H1       0.19583    0.28670    0.59760   1.00
H1       0.18999    0.24039    0.39944   1.00
H1       0.29952    0.21674    0.60118   1.00
C5       0.32529    0.25777    0.39620   1.00
H1       0.31275    0.25741    0.47378   1.00
H1       0.30135    0.21507    0.52941   1.00
H2       0.32165    0.25604    0.36401   1.00
H2       0.33698    0.28727    0.40295   1.00
N1       0.35284    0.22766    0.40875   1.00
C6       0.34870    0.18894    0.40356   1.00
C6       0.38707    0.23355    0.42712   1.00
C6       0.38055    0.16978    0.41898   1.00
C6       0.40496    0.19816    0.43396   1.00
H3       0.32390    0.17528    0.38951   1.00
H3       0.39853    0.26186    0.43516   1.00
H3       0.38545    0.13862    0.41924   1.00
H3       0.43272    0.19354    0.44820   1.00
C4       0.24968    0.74930    0.47917   1.00
C4       0.25032    0.75070    0.52083   1.00
C3       0.21995    0.72942    0.45846   1.00
C3       0.21594    0.75531    0.54321   1.00
C3       0.27832    0.76858    0.45643   1.00
C3       0.28563    0.74654    0.54187   1.00
C2       0.24753    0.74820    0.39487   1.00
C2       0.25217    0.75169    0.60514   1.00
C3       0.21900    0.72889    0.41715   1.00
C3       0.21693    0.75584    0.58449   1.00
C3       0.27720    0.76798    0.41514   1.00
C3a      0.28675    0.74706    0.58328   1.00
H1       0.19746    0.71385    0.47425   1.00
H1       0.18810    0.75901    0.52875   1.00
H1       0.19583    0.71330    0.40240   1.00
H1       0.18999    0.75961    0.60056   1.00
H1       0.29952    0.78326    0.39882   1.00
C5       0.32529    0.74223    0.60380   1.00
H1       0.31275    0.74259    0.52622   1.00
H1       0.30135    0.78493    0.47059   1.00
H2       0.32165    0.74396    0.63599   1.00
H2       0.33698    0.71273    0.59705   1.00
N1       0.35284    0.77234    0.59125   1.00
C6       0.34870    0.81106    0.59644   1.00
C6       0.38707    0.76645    0.57288   1.00
C6       0.38055    0.83022    0.58102   1.00
C6       0.40496    0.80184    0.56604   1.00
H3       0.32390    0.82472    0.61049   1.00
H3       0.39853    0.73814    0.56484   1.00
H3       0.38545    0.86138    0.58076   1.00
H3       0.43272    0.80646    0.55180   1.00
C4       0.24930    0.97917    0.24968   1.00
C4       0.25070    1.02083    0.25032   1.00
C3       0.22942    0.95846    0.21995   1.00
C3       0.25531    1.04321    0.21594   1.00
C3       0.26858    0.95643    0.27832   1.00
C3       0.24654    1.04187    0.28563   1.00
C2       0.24820    0.89487    0.24753   1.00
C2       0.25169    1.10514    0.25217   1.00
C3       0.22889    0.91715    0.21900   1.00
C3       0.25584    1.08449    0.21693   1.00
C3       0.26798    0.91514    0.27720   1.00
C3a      0.24706    1.08328    0.28675   1.00
H1       0.21385    0.97425    0.19746   1.00
H1       0.25901    1.02875    0.18810   1.00
H1       0.21330    0.90240    0.19583   1.00
H1       0.25961    1.10056    0.18999   1.00
H1       0.28326    0.89882    0.29952   1.00
C5       0.24223    1.10380    0.32529   1.00
H1       0.24259    1.02622    0.31275   1.00
H1       0.28493    0.97059    0.30135   1.00
H2       0.24396    1.13599    0.32165   1.00
H2       0.21273    1.09705    0.33698   1.00
N1       0.27234    1.09125    0.35284   1.00
C6       0.31106    1.09644    0.34870   1.00
C6       0.26645    1.07288    0.38707   1.00
C6       0.33022    1.08102    0.38055   1.00
C6       0.30184    1.06604    0.40496   1.00
H3       0.32472    1.11049    0.32390   1.00
H3       0.23814    1.06484    0.39853   1.00
H3       0.36138    1.08076    0.38545   1.00
H3       0.30646    1.05180    0.43272   1.00
C4       0.02083    0.74968    0.25070   1.00
C4       -0.02083   0.75032    0.24930   1.00
C3       0.04154    0.71995    0.27058   1.00
C3       -0.04321   0.71594    0.24469   1.00
C3       0.04357    0.77832    0.23142   1.00
C3       -0.04187   0.78563    0.25346   1.00
C2       0.10513    0.74753    0.25180   1.00
C2       -0.10514   0.75217    0.24831   1.00
C3       0.08285    0.71900    0.27111   1.00
C3       -0.08449   0.71693    0.24416   1.00
C3       0.08486    0.77720    0.23202   1.00
C3a      -0.08328   0.78675    0.25294   1.00
H1       0.02575    0.69746    0.28615   1.00
H1       -0.02875   0.68810    0.24099   1.00
H1       0.09760    0.69583    0.28670   1.00
H1       -0.10056   0.68999    0.24039   1.00
H1       0.10118    0.79952    0.21674   1.00
C5       -0.10380   0.82529    0.25777   1.00
H1       -0.02622   0.81275    0.25741   1.00
H1       0.02941    0.80135    0.21507   1.00
H2       -0.13599   0.82165    0.25604   1.00
H2       -0.09705   0.83698    0.28727   1.00
N1       -0.09125   0.85284    0.22766   1.00
C6       -0.09644   0.84870    0.18894   1.00
C6       -0.07288   0.88707    0.23355   1.00
C6       -0.08102   0.88055    0.16978   1.00
C6       -0.06604   0.90496    0.19816   1.00
H3       -0.11049   0.82390    0.17528   1.00
H3       -0.06484   0.89853    0.26186   1.00
H3       -0.08076   0.88545    0.13862   1.00
H3       -0.05180   0.93272    0.19354   1.00
C4       0.47917    0.74968    0.24930   1.00
C4       0.52083    0.75032    0.25070   1.00
C3       0.45846    0.71995    0.22942   1.00
C3       0.54321    0.71594    0.25531   1.00
C3       0.45643    0.77832    0.26858   1.00
C3       0.54187    0.78563    0.24654   1.00
C2       0.39487    0.74753    0.24820   1.00
C2       0.60514    0.75217    0.25169   1.00
C3       0.41715    0.71900    0.22889   1.00
C3       0.58449    0.71693    0.25584   1.00
C3       0.41514    0.77720    0.26798   1.00
C3a      0.58328    0.78675    0.24706   1.00
H1       0.47425    0.69746    0.21385   1.00
H1       0.52875    0.68810    0.25901   1.00
H1       0.40240    0.69583    0.21330   1.00
H1       0.60056    0.68999    0.25961   1.00
H1       0.39882    0.79952    0.28326   1.00
C5       0.60380    0.82529    0.24223   1.00
H1       0.52622    0.81275    0.24259   1.00
H1       0.47059    0.80135    0.28493   1.00
H2       0.63599    0.82165    0.24396   1.00
H2       0.59705    0.83698    0.21273   1.00
N1       0.59125    0.85284    0.27234   1.00
C6       0.59644    0.84870    0.31106   1.00
C6       0.57288    0.88707    0.26645   1.00
C6       0.58102    0.88055    0.33022   1.00
C6       0.56604    0.90496    0.30184   1.00
H3       0.61049    0.82390    0.32472   1.00
H3       0.56484    0.89853    0.23814   1.00
H3       0.58076    0.88545    0.36138   1.00
H3       0.55180    0.93272    0.30646   1.00
C4       0.25070    0.52083    0.24968   1.00
C4       0.24930    0.47917    0.25032   1.00
C3       0.27058    0.54154    0.21995   1.00
C3       0.24469    0.45679    0.21594   1.00
C3       0.23142    0.54357    0.27832   1.00
C3       0.25346    0.45813    0.28563   1.00
C2       0.25180    0.60513    0.24753   1.00
C2       0.24831    0.39486    0.25217   1.00
C3       0.27111    0.58285    0.21900   1.00
C3       0.24416    0.41551    0.21693   1.00
C3       0.23202    0.58486    0.27720   1.00
C3a      0.25294    0.41672    0.28675   1.00
H1       0.28615    0.52575    0.19746   1.00
H1       0.24099    0.47125    0.18810   1.00
H1       0.28670    0.59760    0.19583   1.00
H1       0.24039    0.39944    0.18999   1.00
H1       0.21674    0.60118    0.29952   1.00
C5       0.25777    0.39620    0.32529   1.00
H1       0.25741    0.47378    0.31275   1.00
H1       0.21507    0.52941    0.30135   1.00
H2       0.25604    0.36401    0.32165   1.00
H2       0.28727    0.40295    0.33698   1.00
N1       0.22766    0.40875    0.35284   1.00
C6       0.18894    0.40356    0.34870   1.00
C6       0.23355    0.42712    0.38707   1.00
C6       0.16978    0.41898    0.38055   1.00
C6       0.19816    0.43396    0.40496   1.00
H3       0.17528    0.38951    0.32390   1.00
H3       0.26186    0.43516    0.39853   1.00
H3       0.13862    0.41924    0.38545   1.00
H3       0.19354    0.44820    0.43272   1.00
C4       0.24968    0.75070    0.02083   1.00
C4       0.25032    0.74930    -0.02083   1.00
C3       0.21995    0.77058    0.04154   1.00
C3       0.21594    0.74469    -0.04321   1.00
C3       0.27832    0.73142    0.04357   1.00
C3       0.28563    0.75346    -0.04187   1.00
C2       0.24753    0.75180    0.10513   1.00
C2       0.25217    0.74831    -0.10514   1.00
C3       0.21900    0.77111    0.08285   1.00
C3       0.21693    0.74416    -0.08449   1.00
C3       0.27720    0.73202    0.08486   1.00
C3a      0.28675    0.75294    -0.08328   1.00
H1       0.19746    0.78615    0.02575   1.00
H1       0.18810    0.74099    -0.02875   1.00
H1       0.19583    0.78670    0.09760   1.00
H1       0.18999    0.74039    -0.10056   1.00
H1       0.29952    0.71674    0.10118   1.00
C5       0.32529    0.75777    -0.10380   1.00
H1       0.31275    0.75741    -0.02622   1.00
H1       0.30135    0.71507    0.02941   1.00
H2       0.32165    0.75604    -0.13599   1.00
H2       0.33698    0.78727    -0.09705   1.00
N1       0.35284    0.72766    -0.09125   1.00
C6       0.34870    0.68894    -0.09644   1.00
C6       0.38707    0.73355    -0.07288   1.00
C6       0.38055    0.66978    -0.08102   1.00
C6       0.40496    0.69816    -0.06604   1.00
H3       0.32390    0.67528    -0.11049   1.00
H3       0.39853    0.76186    -0.06484   1.00
H3       0.38545    0.63862    -0.08076   1.00
H3       0.43272    0.69354    -0.05180   1.00
C4       0.74968    0.24930    0.47917   1.00
C4       0.75032    0.25070    0.52083   1.00
C3       0.71995    0.22942    0.45846   1.00
C3       0.71594    0.25531    0.54321   1.00
C3       0.77832    0.26858    0.45643   1.00
C3       0.78563    0.24654    0.54187   1.00
C2       0.74753    0.24820    0.39487   1.00
C2       0.75217    0.25169    0.60514   1.00
C3       0.71900    0.22889    0.41715   1.00
C3       0.71693    0.25584    0.58449   1.00
C3       0.77720    0.26798    0.41514   1.00
C3a      0.78675    0.24706    0.58328   1.00
H1       0.69746    0.21385    0.47425   1.00
H1       0.68810    0.25901    0.52875   1.00
H1       0.69583    0.21330    0.40240   1.00
H1       0.68999    0.25961    0.60056   1.00
H1       0.79952    0.28326    0.39882   1.00
C5       0.82529    0.24223    0.60380   1.00
H1       0.81275    0.24259    0.52622   1.00
H1       0.80135    0.28493    0.47059   1.00
H2       0.82165    0.24396    0.63599   1.00
H2       0.83698    0.21273    0.59705   1.00
N1       0.85284    0.27234    0.59125   1.00
C6       0.84870    0.31106    0.59644   1.00
C6       0.88707    0.26645    0.57288   1.00
C6       0.88055    0.33022    0.58102   1.00
C6       0.90496    0.30184    0.56604   1.00
H3       0.82390    0.32472    0.61049   1.00
H3       0.89853    0.23814    0.56484   1.00
H3       0.88545    0.36138    0.58076   1.00
H3       0.93272    0.30646    0.55180   1.00
C4       0.74930    0.47917    0.24968   1.00
C4       0.75070    0.52083    0.25032   1.00
C3       0.72942    0.45846    0.21995   1.00
C3       0.75531    0.54321    0.21594   1.00
C3       0.76858    0.45643    0.27832   1.00
C3       0.74654    0.54187    0.28563   1.00
C2       0.74820    0.39487    0.24753   1.00
C2       0.75169    0.60514    0.25217   1.00
C3       0.72889    0.41715    0.21900   1.00
C3       0.75584    0.58449    0.21693   1.00
C3       0.76798    0.41514    0.27720   1.00
C3a      0.74706    0.58328    0.28675   1.00
H1       0.71385    0.47425    0.19746   1.00
H1       0.75901    0.52875    0.18810   1.00
H1       0.71330    0.40240    0.19583   1.00
H1       0.75961    0.60056    0.18999   1.00
H1       0.78326    0.39882    0.29952   1.00
C5       0.74223    0.60380    0.32529   1.00
H1       0.74259    0.52622    0.31275   1.00
H1       0.78493    0.47059    0.30135   1.00
H2       0.74396    0.63599    0.32165   1.00
H2       0.71273    0.59705    0.33698   1.00
N1       0.77234    0.59125    0.35284   1.00
C6       0.81106    0.59644    0.34870   1.00
C6       0.76645    0.57288    0.38707   1.00
C6       0.83022    0.58102    0.38055   1.00
C6       0.80184    0.56604    0.40496   1.00
H3       0.82472    0.61049    0.32390   1.00
H3       0.73814    0.56484    0.39853   1.00
H3       0.86138    0.58076    0.38545   1.00
H3       0.80646    0.55180    0.43272   1.00
C4       0.52083    0.24968    0.25070   1.00
C4       0.47917    0.25032    0.24930   1.00
C3       0.54154    0.21995    0.27058   1.00
C3       0.45679    0.21594    0.24469   1.00
C3       0.54357    0.27832    0.23142   1.00
C3       0.45813    0.28563    0.25346   1.00
C2       0.60513    0.24753    0.25180   1.00
C2       0.39486    0.25217    0.24831   1.00
C3       0.58285    0.21900    0.27111   1.00
C3       0.41551    0.21693    0.24416   1.00
C3       0.58486    0.27720    0.23202   1.00
C3a      0.41672    0.28675    0.25294   1.00
H1       0.52575    0.19746    0.28615   1.00
H1       0.47125    0.18810    0.24099   1.00
H1       0.59760    0.19583    0.28670   1.00
H1       0.39944    0.18999    0.24039   1.00
H1       0.60118    0.29952    0.21674   1.00
C5       0.39620    0.32529    0.25777   1.00
H1       0.47378    0.31275    0.25741   1.00
H1       0.52941    0.30135    0.21507   1.00
H2       0.36401    0.32165    0.25604   1.00
H2       0.40295    0.33698    0.28727   1.00
N1       0.40875    0.35284    0.22766   1.00
C6       0.40356    0.34870    0.18894   1.00
C6       0.42712    0.38707    0.23355   1.00
C6       0.41898    0.38055    0.16978   1.00
C6       0.43396    0.40496    0.19816   1.00
H3       0.38951    0.32390    0.17528   1.00
H3       0.43516    0.39853    0.26186   1.00
H3       0.41924    0.38545    0.13862   1.00
H3       0.44820    0.43272    0.19354   1.00
C4       0.97917    0.24968    0.24930   1.00
C4       1.02083    0.25032    0.25070   1.00
C3       0.95846    0.21995    0.22942   1.00
C3       1.04321    0.21594    0.25531   1.00
C3       0.95643    0.27832    0.26858   1.00
C3       1.04187    0.28563    0.24654   1.00
C2       0.89487    0.24753    0.24820   1.00
C2       1.10514    0.25217    0.25169   1.00
C3       0.91715    0.21900    0.22889   1.00
C3       1.08449    0.21693    0.25584   1.00
C3       0.91514    0.27720    0.26798   1.00
C3a      1.08328    0.28675    0.24706   1.00
H1       0.97425    0.19746    0.21385   1.00
H1       1.02875    0.18810    0.25901   1.00
H1       0.90240    0.19583    0.21330   1.00
H1       1.10056    0.18999    0.25961   1.00
H1       0.89882    0.29952    0.28326   1.00
C5       1.10380    0.32529    0.24223   1.00
H1       1.02622    0.31275    0.24259   1.00
H1       0.97059    0.30135    0.28493   1.00
H2       1.13599    0.32165    0.24396   1.00
H2       1.09705    0.33698    0.21273   1.00
N1       1.09125    0.35284    0.27234   1.00
C6       1.09644    0.34870    0.31106   1.00
C6       1.07288    0.38707    0.26645   1.00
C6       1.08102    0.38055    0.33022   1.00
C6       1.06604    0.40496    0.30184   1.00
H3       1.11049    0.32390    0.32472   1.00
H3       1.06484    0.39853    0.23814   1.00
H3       1.08076    0.38545    0.36138   1.00
H3       1.05180    0.43272    0.30646   1.00
C4       0.75070    0.02083    0.24968   1.00
C4       0.74930    -0.02083   0.25032   1.00
C3       0.77058    0.04154    0.21995   1.00
C3       0.74469    -0.04321   0.21594   1.00
C3       0.73142    0.04357    0.27832   1.00
C3       0.75346    -0.04187   0.28563   1.00
C2       0.75180    0.10513    0.24753   1.00
C2       0.74831    -0.10514   0.25217   1.00
C3       0.77111    0.08285    0.21900   1.00
C3       0.74416    -0.08449   0.21693   1.00
C3       0.73202    0.08486    0.27720   1.00
C3a      0.75294    -0.08328   0.28675   1.00
H1       0.78615    0.02575    0.19746   1.00
H1       0.74099    -0.02875   0.18810   1.00
H1       0.78670    0.09760    0.19583   1.00
H1       0.74039    -0.10056   0.18999   1.00
H1       0.71674    0.10118    0.29952   1.00
C5       0.75777    -0.10380   0.32529   1.00
H1       0.75741    -0.02622   0.31275   1.00
H1       0.71507    0.02941    0.30135   1.00
H2       0.75604    -0.13599   0.32165   1.00
H2       0.78727    -0.09705   0.33698   1.00
N1       0.72766    -0.09125   0.35284   1.00
C6       0.68894    -0.09644   0.34870   1.00
C6       0.73355    -0.07288   0.38707   1.00
C6       0.66978    -0.08102   0.38055   1.00
C6       0.69816    -0.06604   0.40496   1.00
H3       0.67528    -0.11049   0.32390   1.00
H3       0.76186    -0.06484   0.39853   1.00
H3       0.63862    -0.08076   0.38545   1.00
H3       0.69354    -0.05180   0.43272   1.00
C4       0.74968    0.25070    0.02083   1.00
C4       0.75032    0.24930    -0.02083   1.00
C3       0.71995    0.27058    0.04154   1.00
C3       0.71594    0.24469    -0.04321   1.00
C3       0.77832    0.23142    0.04357   1.00
C3       0.78563    0.25346    -0.04187   1.00
C2       0.74753    0.25180    0.10513   1.00
C2       0.75217    0.24831    -0.10514   1.00
C3       0.71900    0.27111    0.08285   1.00
C3       0.71693    0.24416    -0.08449   1.00
C3       0.77720    0.23202    0.08486   1.00
C3a      0.78675    0.25294    -0.08328   1.00
H1       0.69746    0.28615    0.02575   1.00
H1       0.68810    0.24099    -0.02875   1.00
H1       0.69583    0.28670    0.09760   1.00
H1       0.68999    0.24039    -0.10056   1.00
H1       0.79952    0.21674    0.10118   1.00
C5       0.82529    0.25777    -0.10380   1.00
H1       0.81275    0.25741    -0.02622   1.00
H1       0.80135    0.21507    0.02941   1.00
H2       0.82165    0.25604    -0.13599   1.00
H2       0.83698    0.28727    -0.09705   1.00
N1       0.85284    0.22766    -0.09125   1.00
C6       0.84870    0.18894    -0.09644   1.00
C6       0.88707    0.23355    -0.07288   1.00
C6       0.88055    0.16978    -0.08102   1.00
C6       0.90496    0.19816    -0.06604   1.00
H3       0.82390    0.17528    -0.11049   1.00
H3       0.89853    0.26186    -0.06484   1.00
H3       0.88545    0.13862    -0.08076   1.00
H3       0.93272    0.19354    -0.05180   1.00
C4       0.99968    0.99930    1.22917   1.00
C4       1.00032    1.00070    1.27083   1.00
C3       0.96995    0.97942    1.20846   1.00
C3       0.96594    1.00531    1.29321   1.00
C3       1.02832    1.01858    1.20643   1.00
C3       1.03563    0.99654    1.29187   1.00
C2       0.99753    0.99820    1.14487   1.00
C2       1.00217    1.00169    1.35514   1.00
C3       0.96900    0.97889    1.16715   1.00
C3       0.96693    1.00584    1.33449   1.00
C3       1.02720    1.01798    1.16514   1.00
C3a      1.03675    0.99706    1.33328   1.00
H1       0.94746    0.96385    1.22425   1.00
H1       0.93810    1.00901    1.27875   1.00
H1       0.94583    0.96330    1.15240   1.00
H1       0.93999    1.00961    1.35056   1.00
H1       1.04952    1.03326    1.14882   1.00
C5       1.07529    0.99223    1.35380   1.00
H1       1.06275    0.99259    1.27622   1.00
H1       1.05135    1.03493    1.22059   1.00
H2       1.07165    0.99396    1.38599   1.00
H2       1.08698    0.96273    1.34705   1.00
N1       1.10284    1.02234    1.34125   1.00
C6       1.09870    1.06106    1.34644   1.00
C6       1.13707    1.01645    1.32288   1.00
C6       1.13055    1.08022    1.33102   1.00
C6       1.15496    1.05184    1.31604   1.00
H3       1.07390    1.07472    1.36049   1.00
H3       1.14853    0.98814    1.31484   1.00
H3       1.13545    1.11138    1.33076   1.00
H3       1.18272    1.05646    1.30180   1.00
C4       0.99930    1.22917    0.99968   1.00
C4       1.00070    1.27083    1.00032   1.00
C3       0.97942    1.20846    0.96995   1.00
C3       1.00531    1.29321    0.96594   1.00
C3       1.01858    1.20643    1.02832   1.00
C3       0.99654    1.29187    1.03563   1.00
C2       0.99820    1.14487    0.99753   1.00
C2       1.00169    1.35514    1.00217   1.00
C3       0.97889    1.16715    0.96900   1.00
C3       1.00584    1.33449    0.96693   1.00
C3       1.01798    1.16514    1.02720   1.00
C3a      0.99706    1.33328    1.03675   1.00
H1       0.96385    1.22425    0.94746   1.00
H1       1.00901    1.27875    0.93810   1.00
H1       0.96330    1.15240    0.94583   1.00
H1       1.00961    1.35056    0.93999   1.00
H1       1.03326    1.14882    1.04952   1.00
C5       0.99223    1.35380    1.07529   1.00
H1       0.99259    1.27622    1.06275   1.00
H1       1.03493    1.22059    1.05135   1.00
H2       0.99396    1.38599    1.07165   1.00
H2       0.96273    1.34705    1.08698   1.00
N1       1.02234    1.34125    1.10284   1.00
C6       1.06106    1.34644    1.09870   1.00
C6       1.01645    1.32288    1.13707   1.00
C6       1.08022    1.33102    1.13055   1.00
C6       1.05184    1.31604    1.15496   1.00
H3       1.07472    1.36049    1.07390   1.00
H3       0.98814    1.31484    1.14853   1.00
H3       1.11138    1.33076    1.13545   1.00
H3       1.05646    1.30180    1.18272   1.00
C4       0.77083    0.99968    1.00070   1.00
C4       0.72917    1.00032    0.99930   1.00
C3       0.79154    0.96995    1.02058   1.00
C3       0.70679    0.96594    0.99469   1.00
C3       0.79357    1.02832    0.98142   1.00
C3       0.70813    1.03563    1.00346   1.00
C2       0.85513    0.99753    1.00180   1.00
C2       0.64486    1.00217    0.99831   1.00
C3       0.83285    0.96900    1.02111   1.00
C3       0.66551    0.96693    0.99416   1.00
C3       0.83486    1.02720    0.98202   1.00
C3a      0.66672    1.03675    1.00294   1.00
H1       0.77575    0.94746    1.03615   1.00
H1       0.72125    0.93810    0.99099   1.00
H1       0.84760    0.94583    1.03670   1.00
H1       0.64944    0.93999    0.99039   1.00
H1       0.85118    1.04952    0.96674   1.00
C5       0.64620    1.07529    1.00777   1.00
H1       0.72378    1.06275    1.00741   1.00
H1       0.77941    1.05135    0.96507   1.00
H2       0.61401    1.07165    1.00604   1.00
H2       0.65295    1.08698    1.03727   1.00
N1       0.65875    1.10284    0.97766   1.00
C6       0.65356    1.09870    0.93894   1.00
C6       0.67712    1.13707    0.98355   1.00
C6       0.66898    1.13055    0.91978   1.00
C6       0.68396    1.15496    0.94816   1.00
H3       0.63951    1.07390    0.92528   1.00
H3       0.68516    1.14853    1.01186   1.00
H3       0.66924    1.13545    0.88862   1.00
H3       0.69820    1.18272    0.94354   1.00
C4       1.22917    0.99968    0.99930   1.00
C4       1.27083    1.00032    1.00070   1.00
C3       1.20846    0.96995    0.97942   1.00
C3       1.29321    0.96594    1.00531   1.00
C3       1.20643    1.02832    1.01858   1.00
C3       1.29187    1.03563    0.99654   1.00
C2       1.14487    0.99753    0.99820   1.00
C2       1.35514    1.00217    1.00169   1.00
C3       1.16715    0.96900    0.97889   1.00
C3       1.33449    0.96693    1.00584   1.00
C3       1.16514    1.02720    1.01798   1.00
C3a      1.33328    1.03675    0.99706   1.00
H1       1.22425    0.94746    0.96385   1.00
H1       1.27875    0.93810    1.00901   1.00
H1       1.15240    0.94583    0.96330   1.00
H1       1.35056    0.93999    1.00961   1.00
H1       1.14882    1.04952    1.03326   1.00
C5       1.35380    1.07529    0.99223   1.00
H1       1.27622    1.06275    0.99259   1.00
H1       1.22059    1.05135    1.03493   1.00
H2       1.38599    1.07165    0.99396   1.00
H2       1.34705    1.08698    0.96273   1.00
N1       1.34125    1.10284    1.02234   1.00
C6       1.34644    1.09870    1.06106   1.00
C6       1.32288    1.13707    1.01645   1.00
C6       1.33102    1.13055    1.08022   1.00
C6       1.31604    1.15496    1.05184   1.00
H3       1.36049    1.07390    1.07472   1.00
H3       1.31484    1.14853    0.98814   1.00
H3       1.33076    1.13545    1.11138   1.00
H3       1.30180    1.18272    1.05646   1.00
C4       1.00070    0.77083    0.99968   1.00
C4       0.99930    0.72917    1.00032   1.00
C3       1.02058    0.79154    0.96995   1.00
C3       0.99469    0.70679    0.96594   1.00
C3       0.98142    0.79357    1.02832   1.00
C3       1.00346    0.70813    1.03563   1.00
C2       1.00180    0.85513    0.99753   1.00
C2       0.99831    0.64486    1.00217   1.00
C3       1.02111    0.83285    0.96900   1.00
C3       0.99416    0.66551    0.96693   1.00
C3       0.98202    0.83486    1.02720   1.00
C3a      1.00294    0.66672    1.03675   1.00
H1       1.03615    0.77575    0.94746   1.00
H1       0.99099    0.72125    0.93810   1.00
H1       1.03670    0.84760    0.94583   1.00
H1       0.99039    0.64944    0.93999   1.00
H1       0.96674    0.85118    1.04952   1.00
C5       1.00777    0.64620    1.07529   1.00
H1       1.00741    0.72378    1.06275   1.00
H1       0.96507    0.77941    1.05135   1.00
H2       1.00604    0.61401    1.07165   1.00
H2       1.03727    0.65295    1.08698   1.00
N1       0.97766    0.65875    1.10284   1.00
C6       0.93894    0.65356    1.09870   1.00
C6       0.98355    0.67712    1.13707   1.00
C6       0.91978    0.66898    1.13055   1.00
C6       0.94816    0.68396    1.15496   1.00
H3       0.92528    0.63951    1.07390   1.00
H3       1.01186    0.68516    1.14853   1.00
H3       0.88862    0.66924    1.13545   1.00
H3       0.94354    0.69820    1.18272   1.00
C4       0.99968    1.00070    0.77083   1.00
C4       1.00032    0.99930    0.72917   1.00
C3       0.96995    1.02058    0.79154   1.00
C3       0.96594    0.99469    0.70679   1.00
C3       1.02832    0.98142    0.79357   1.00
C3       1.03563    1.00346    0.70813   1.00
C2       0.99753    1.00180    0.85513   1.00
C2       1.00217    0.99831    0.64486   1.00
C3       0.96900    1.02111    0.83285   1.00
C3       0.96693    0.99416    0.66551   1.00
C3       1.02720    0.98202    0.83486   1.00
C3a      1.03675    1.00294    0.66672   1.00
H1       0.94746    1.03615    0.77575   1.00
H1       0.93810    0.99099    0.72125   1.00
H1       0.94583    1.03670    0.84760   1.00
H1       0.93999    0.99039    0.64944   1.00
H1       1.04952    0.96674    0.85118   1.00
C5       1.07529    1.00777    0.64620   1.00
H1       1.06275    1.00741    0.72378   1.00
H1       1.05135    0.96507    0.77941   1.00
H2       1.07165    1.00604    0.61401   1.00
H2       1.08698    1.03727    0.65295   1.00
N1       1.10284    0.97766    0.65875   1.00
C6       1.09870    0.93894    0.65356   1.00
C6       1.13707    0.98355    0.67712   1.00
C6       1.13055    0.91978    0.66898   1.00
C6       1.15496    0.94816    0.68396   1.00
H3       1.07390    0.92528    0.63951   1.00
H3       1.14853    1.01186    0.68516   1.00
H3       1.13545    0.88862    0.66924   1.00
H3       1.18272    0.94354    0.69820   1.00
C4       0.49968    0.49930    1.22917   1.00
C4       0.50032    0.50070    1.27083   1.00
C3       0.46995    0.47942    1.20846   1.00
C3       0.46594    0.50531    1.29321   1.00
C3       0.52832    0.51858    1.20643   1.00
C3       0.53563    0.49654    1.29187   1.00
C2       0.49753    0.49820    1.14487   1.00
C2       0.50217    0.50169    1.35514   1.00
C3       0.46900    0.47889    1.16715   1.00
C3       0.46693    0.50584    1.33449   1.00
C3       0.52720    0.51798    1.16514   1.00
C3a      0.53675    0.49706    1.33328   1.00
H1       0.44746    0.46385    1.22425   1.00
H1       0.43810    0.50901    1.27875   1.00
H1       0.44583    0.46330    1.15240   1.00
H1       0.43999    0.50961    1.35056   1.00
H1       0.54952    0.53326    1.14882   1.00
C5       0.57529    0.49223    1.35380   1.00
H1       0.56275    0.49259    1.27622   1.00
H1       0.55135    0.53493    1.22059   1.00
H2       0.57165    0.49396    1.38599   1.00
H2       0.58698    0.46273    1.34705   1.00
N1       0.60284    0.52234    1.34125   1.00
C6       0.59870    0.56106    1.34644   1.00
C6       0.63707    0.51645    1.32288   1.00
C6       0.63055    0.58022    1.33102   1.00
C6       0.65496    0.55184    1.31604   1.00
H3       0.57390    0.57472    1.36049   1.00
H3       0.64853    0.48814    1.31484   1.00
H3       0.63545    0.61138    1.33076   1.00
H3       0.68272    0.55646    1.30180   1.00
C4       0.49930    0.72917    0.99968   1.00
C4       0.50070    0.77083    1.00032   1.00
C3       0.47942    0.70846    0.96995   1.00
C3       0.50531    0.79321    0.96594   1.00
C3       0.51858    0.70643    1.02832   1.00
C3       0.49654    0.79187    1.03563   1.00
C2       0.49820    0.64487    0.99753   1.00
C2       0.50169    0.85514    1.00217   1.00
C3       0.47889    0.66715    0.96900   1.00
C3       0.50584    0.83449    0.96693   1.00
C3       0.51798    0.66514    1.02720   1.00
C3a      0.49706    0.83328    1.03675   1.00
H1       0.46385    0.72425    0.94746   1.00
H1       0.50901    0.77875    0.93810   1.00
H1       0.46330    0.65240    0.94583   1.00
H1       0.50961    0.85056    0.93999   1.00
H1       0.53326    0.64882    1.04952   1.00
C5       0.49223    0.85380    1.07529   1.00
H1       0.49259    0.77622    1.06275   1.00
H1       0.53493    0.72059    1.05135   1.00
H2       0.49396    0.88599    1.07165   1.00
H2       0.46273    0.84705    1.08698   1.00
N1       0.52234    0.84125    1.10284   1.00
C6       0.56106    0.84644    1.09870   1.00
C6       0.51645    0.82288    1.13707   1.00
C6       0.58022    0.83102    1.13055   1.00
C6       0.55184    0.81604    1.15496   1.00
H3       0.57472    0.86049    1.07390   1.00
H3       0.48814    0.81484    1.14853   1.00
H3       0.61138    0.83076    1.13545   1.00
H3       0.55646    0.80180    1.18272   1.00
C4       0.27083    0.49968    1.00070   1.00
C4       0.22917    0.50032    0.99930   1.00
C3       0.29154    0.46995    1.02058   1.00
C3       0.20679    0.46594    0.99469   1.00
C3       0.29357    0.52832    0.98142   1.00
C3       0.20813    0.53563    1.00346   1.00
C2       0.35513    0.49753    1.00180   1.00
C2       0.14486    0.50217    0.99831   1.00
C3       0.33285    0.46900    1.02111   1.00
C3       0.16551    0.46693    0.99416   1.00
C3       0.33486    0.52720    0.98202   1.00
C3a      0.16672    0.53675    1.00294   1.00
H1       0.27575    0.44746    1.03615   1.00
H1       0.22125    0.43810    0.99099   1.00
H1       0.34760    0.44583    1.03670   1.00
H1       0.14944    0.43999    0.99039   1.00
H1       0.35118    0.54952    0.96674   1.00
C5       0.14620    0.57529    1.00777   1.00
H1       0.22378    0.56275    1.00741   1.00
H1       0.27941    0.55135    0.96507   1.00
H2       0.11401    0.57165    1.00604   1.00
H2       0.15295    0.58698    1.03727   1.00
N1       0.15875    0.60284    0.97766   1.00
C6       0.15356    0.59870    0.93894   1.00
C6       0.17712    0.63707    0.98355   1.00
C6       0.16898    0.63055    0.91978   1.00
C6       0.18396    0.65496    0.94816   1.00
H3       0.13951    0.57390    0.92528   1.00
H3       0.18516    0.64853    1.01186   1.00
H3       0.16924    0.63545    0.88862   1.00
H3       0.19820    0.68272    0.94354   1.00
C4       0.72917    0.49968    0.99930   1.00
C4       0.77083    0.50032    1.00070   1.00
C3       0.70846    0.46995    0.97942   1.00
C3       0.79321    0.46594    1.00531   1.00
C3       0.70643    0.52832    1.01858   1.00
C3       0.79187    0.53563    0.99654   1.00
C2       0.64487    0.49753    0.99820   1.00
C2       0.85514    0.50217    1.00169   1.00
C3       0.66715    0.46900    0.97889   1.00
C3       0.83449    0.46693    1.00584   1.00
C3       0.66514    0.52720    1.01798   1.00
C3a      0.83328    0.53675    0.99706   1.00
H1       0.72425    0.44746    0.96385   1.00
H1       0.77875    0.43810    1.00901   1.00
H1       0.65240    0.44583    0.96330   1.00
H1       0.85056    0.43999    1.00961   1.00
H1       0.64882    0.54952    1.03326   1.00
C5       0.85380    0.57529    0.99223   1.00
H1       0.77622    0.56275    0.99259   1.00
H1       0.72059    0.55135    1.03493   1.00
H2       0.88599    0.57165    0.99396   1.00
H2       0.84705    0.58698    0.96273   1.00
N1       0.84125    0.60284    1.02234   1.00
C6       0.84644    0.59870    1.06106   1.00
C6       0.82288    0.63707    1.01645   1.00
C6       0.83102    0.63055    1.08022   1.00
C6       0.81604    0.65496    1.05184   1.00
H3       0.86049    0.57390    1.07472   1.00
H3       0.81484    0.64853    0.98814   1.00
H3       0.83076    0.63545    1.11138   1.00
H3       0.80180    0.68272    1.05646   1.00
C4       0.50070    0.27083    0.99968   1.00
C4       0.49930    0.22917    1.00032   1.00
C3       0.52058    0.29154    0.96995   1.00
C3       0.49469    0.20679    0.96594   1.00
C3       0.48142    0.29357    1.02832   1.00
C3       0.50346    0.20813    1.03563   1.00
C2       0.50180    0.35513    0.99753   1.00
C2       0.49831    0.14486    1.00217   1.00
C3       0.52111    0.33285    0.96900   1.00
C3       0.49416    0.16551    0.96693   1.00
C3       0.48202    0.33486    1.02720   1.00
C3a      0.50294    0.16672    1.03675   1.00
H1       0.53615    0.27575    0.94746   1.00
H1       0.49099    0.22125    0.93810   1.00
H1       0.53670    0.34760    0.94583   1.00
H1       0.49039    0.14944    0.93999   1.00
H1       0.46674    0.35118    1.04952   1.00
C5       0.50777    0.14620    1.07529   1.00
H1       0.50741    0.22378    1.06275   1.00
H1       0.46507    0.27941    1.05135   1.00
H2       0.50604    0.11401    1.07165   1.00
H2       0.53727    0.15295    1.08698   1.00
N1       0.47766    0.15875    1.10284   1.00
C6       0.43894    0.15356    1.09870   1.00
C6       0.48355    0.17712    1.13707   1.00
C6       0.41978    0.16898    1.13055   1.00
C6       0.44816    0.18396    1.15496   1.00
H3       0.42528    0.13951    1.07390   1.00
H3       0.51186    0.18516    1.14853   1.00
H3       0.38862    0.16924    1.13545   1.00
H3       0.44354    0.19820    1.18272   1.00
C4       0.49968    0.50070    0.77083   1.00
C4       0.50032    0.49930    0.72917   1.00
C3       0.46995    0.52058    0.79154   1.00
C3       0.46594    0.49469    0.70679   1.00
C3       0.52832    0.48142    0.79357   1.00
C3       0.53563    0.50346    0.70813   1.00
C2       0.49753    0.50180    0.85513   1.00
C2       0.50217    0.49831    0.64486   1.00
C3       0.46900    0.52111    0.83285   1.00
C3       0.46693    0.49416    0.66551   1.00
C3       0.52720    0.48202    0.83486   1.00
C3a      0.53675    0.50294    0.66672   1.00
H1       0.44746    0.53615    0.77575   1.00
H1       0.43810    0.49099    0.72125   1.00
H1       0.44583    0.53670    0.84760   1.00
H1       0.43999    0.49039    0.64944   1.00
H1       0.54952    0.46674    0.85118   1.00
C5       0.57529    0.50777    0.64620   1.00
H1       0.56275    0.50741    0.72378   1.00
H1       0.55135    0.46507    0.77941   1.00
H2       0.57165    0.50604    0.61401   1.00
H2       0.58698    0.53727    0.65295   1.00
N1       0.60284    0.47766    0.65875   1.00
C6       0.59870    0.43894    0.65356   1.00
C6       0.63707    0.48355    0.67712   1.00
C6       0.63055    0.41978    0.66898   1.00
C6       0.65496    0.44816    0.68396   1.00
H3       0.57390    0.42528    0.63951   1.00
H3       0.64853    0.51186    0.68516   1.00
H3       0.63545    0.38862    0.66924   1.00
H3       0.68272    0.44354    0.69820   1.00
C4       0.49968    0.99930    0.72917   1.00
C4       0.50032    1.00070    0.77083   1.00
C3       0.46995    0.97942    0.70846   1.00
C3       0.46594    1.00531    0.79321   1.00
C3       0.52832    1.01858    0.70643   1.00
C3       0.53563    0.99654    0.79187   1.00
C2       0.49753    0.99820    0.64487   1.00
C2       0.50217    1.00169    0.85514   1.00
C3       0.46900    0.97889    0.66715   1.00
C3       0.46693    1.00584    0.83449   1.00
C3       0.52720    1.01798    0.66514   1.00
C3a      0.53675    0.99706    0.83328   1.00
H1       0.44746    0.96385    0.72425   1.00
H1       0.43810    1.00901    0.77875   1.00
H1       0.44583    0.96330    0.65240   1.00
H1       0.43999    1.00961    0.85056   1.00
H1       0.54952    1.03326    0.64882   1.00
C5       0.57529    0.99223    0.85380   1.00
H1       0.56275    0.99259    0.77622   1.00
H1       0.55135    1.03493    0.72059   1.00
H2       0.57165    0.99396    0.88599   1.00
H2       0.58698    0.96273    0.84705   1.00
N1       0.60284    1.02234    0.84125   1.00
C6       0.59870    1.06106    0.84644   1.00
C6       0.63707    1.01645    0.82288   1.00
C6       0.63055    1.08022    0.83102   1.00
C6       0.65496    1.05184    0.81604   1.00
H3       0.57390    1.07472    0.86049   1.00
H3       0.64853    0.98814    0.81484   1.00
H3       0.63545    1.11138    0.83076   1.00
H3       0.68272    1.05646    0.80180   1.00
C4       0.49930    1.22917    0.49968   1.00
C4       0.50070    1.27083    0.50032   1.00
C3       0.47942    1.20846    0.46995   1.00
C3       0.50531    1.29321    0.46594   1.00
C3       0.51858    1.20643    0.52832   1.00
C3       0.49654    1.29187    0.53563   1.00
C2       0.49820    1.14487    0.49753   1.00
C2       0.50169    1.35514    0.50217   1.00
C3       0.47889    1.16715    0.46900   1.00
C3       0.50584    1.33449    0.46693   1.00
C3       0.51798    1.16514    0.52720   1.00
C3a      0.49706    1.33328    0.53675   1.00
H1       0.46385    1.22425    0.44746   1.00
H1       0.50901    1.27875    0.43810   1.00
H1       0.46330    1.15240    0.44583   1.00
H1       0.50961    1.35056    0.43999   1.00
H1       0.53326    1.14882    0.54952   1.00
C5       0.49223    1.35380    0.57529   1.00
H1       0.49259    1.27622    0.56275   1.00
H1       0.53493    1.22059    0.55135   1.00
H2       0.49396    1.38599    0.57165   1.00
H2       0.46273    1.34705    0.58698   1.00
N1       0.52234    1.34125    0.60284   1.00
C6       0.56106    1.34644    0.59870   1.00
C6       0.51645    1.32288    0.63707   1.00
C6       0.58022    1.33102    0.63055   1.00
C6       0.55184    1.31604    0.65496   1.00
H3       0.57472    1.36049    0.57390   1.00
H3       0.48814    1.31484    0.64853   1.00
H3       0.61138    1.33076    0.63545   1.00
H3       0.55646    1.30180    0.68272   1.00
C4       0.27083    0.99968    0.50070   1.00
C4       0.22917    1.00032    0.49930   1.00
C3       0.29154    0.96995    0.52058   1.00
C3       0.20679    0.96594    0.49469   1.00
C3       0.29357    1.02832    0.48142   1.00
C3       0.20813    1.03563    0.50346   1.00
C2       0.35513    0.99753    0.50180   1.00
C2       0.14486    1.00217    0.49831   1.00
C3       0.33285    0.96900    0.52111   1.00
C3       0.16551    0.96693    0.49416   1.00
C3       0.33486    1.02720    0.48202   1.00
C3a      0.16672    1.03675    0.50294   1.00
H1       0.27575    0.94746    0.53615   1.00
H1       0.22125    0.93810    0.49099   1.00
H1       0.34760    0.94583    0.53670   1.00
H1       0.14944    0.93999    0.49039   1.00
H1       0.35118    1.04952    0.46674   1.00
C5       0.14620    1.07529    0.50777   1.00
H1       0.22378    1.06275    0.50741   1.00
H1       0.27941    1.05135    0.46507   1.00
H2       0.11401    1.07165    0.50604   1.00
H2       0.15295    1.08698    0.53727   1.00
N1       0.15875    1.10284    0.47766   1.00
C6       0.15356    1.09870    0.43894   1.00
C6       0.17712    1.13707    0.48355   1.00
C6       0.16898    1.13055    0.41978   1.00
C6       0.18396    1.15496    0.44816   1.00
H3       0.13951    1.07390    0.42528   1.00
H3       0.18516    1.14853    0.51186   1.00
H3       0.16924    1.13545    0.38862   1.00
H3       0.19820    1.18272    0.44354   1.00
C4       0.72917    0.99968    0.49930   1.00
C4       0.77083    1.00032    0.50070   1.00
C3       0.70846    0.96995    0.47942   1.00
C3       0.79321    0.96594    0.50531   1.00
C3       0.70643    1.02832    0.51858   1.00
C3       0.79187    1.03563    0.49654   1.00
C2       0.64487    0.99753    0.49820   1.00
C2       0.85514    1.00217    0.50169   1.00
C3       0.66715    0.96900    0.47889   1.00
C3       0.83449    0.96693    0.50584   1.00
C3       0.66514    1.02720    0.51798   1.00
C3a      0.83328    1.03675    0.49706   1.00
H1       0.72425    0.94746    0.46385   1.00
H1       0.77875    0.93810    0.50901   1.00
H1       0.65240    0.94583    0.46330   1.00
H1       0.85056    0.93999    0.50961   1.00
H1       0.64882    1.04952    0.53326   1.00
C5       0.85380    1.07529    0.49223   1.00
H1       0.77622    1.06275    0.49259   1.00
H1       0.72059    1.05135    0.53493   1.00
H2       0.88599    1.07165    0.49396   1.00
H2       0.84705    1.08698    0.46273   1.00
N1       0.84125    1.10284    0.52234   1.00
C6       0.84644    1.09870    0.56106   1.00
C6       0.82288    1.13707    0.51645   1.00
C6       0.83102    1.13055    0.58022   1.00
C6       0.81604    1.15496    0.55184   1.00
H3       0.86049    1.07390    0.57472   1.00
H3       0.81484    1.14853    0.48814   1.00
H3       0.83076    1.13545    0.61138   1.00
H3       0.80180    1.18272    0.55646   1.00
C4       0.50070    0.77083    0.49968   1.00
C4       0.49930    0.72917    0.50032   1.00
C3       0.52058    0.79154    0.46995   1.00
C3       0.49469    0.70679    0.46594   1.00
C3       0.48142    0.79357    0.52832   1.00
C3       0.50346    0.70813    0.53563   1.00
C2       0.50180    0.85513    0.49753   1.00
C2       0.49831    0.64486    0.50217   1.00
C3       0.52111    0.83285    0.46900   1.00
C3       0.49416    0.66551    0.46693   1.00
C3       0.48202    0.83486    0.52720   1.00
C3a      0.50294    0.66672    0.53675   1.00
H1       0.53615    0.77575    0.44746   1.00
H1       0.49099    0.72125    0.43810   1.00
H1       0.53670    0.84760    0.44583   1.00
H1       0.49039    0.64944    0.43999   1.00
H1       0.46674    0.85118    0.54952   1.00
C5       0.50777    0.64620    0.57529   1.00
H1       0.50741    0.72378    0.56275   1.00
H1       0.46507    0.77941    0.55135   1.00
H2       0.50604    0.61401    0.57165   1.00
H2       0.53727    0.65295    0.58698   1.00
N1       0.47766    0.65875    0.60284   1.00
C6       0.43894    0.65356    0.59870   1.00
C6       0.48355    0.67712    0.63707   1.00
C6       0.41978    0.66898    0.63055   1.00
C6       0.44816    0.68396    0.65496   1.00
H3       0.42528    0.63951    0.57390   1.00
H3       0.51186    0.68516    0.64853   1.00
H3       0.38862    0.66924    0.63545   1.00
H3       0.44354    0.69820    0.68272   1.00
C4       0.49968    1.00070    0.27083   1.00
C4       0.50032    0.99930    0.22917   1.00
C3       0.46995    1.02058    0.29154   1.00
C3       0.46594    0.99469    0.20679   1.00
C3       0.52832    0.98142    0.29357   1.00
C3       0.53563    1.00346    0.20813   1.00
C2       0.49753    1.00180    0.35513   1.00
C2       0.50217    0.99831    0.14486   1.00
C3       0.46900    1.02111    0.33285   1.00
C3       0.46693    0.99416    0.16551   1.00
C3       0.52720    0.98202    0.33486   1.00
C3a      0.53675    1.00294    0.16672   1.00
H1       0.44746    1.03615    0.27575   1.00
H1       0.43810    0.99099    0.22125   1.00
H1       0.44583    1.03670    0.34760   1.00
H1       0.43999    0.99039    0.14944   1.00
H1       0.54952    0.96674    0.35118   1.00
C5       0.57529    1.00777    0.14620   1.00
H1       0.56275    1.00741    0.22378   1.00
H1       0.55135    0.96507    0.27941   1.00
H2       0.57165    1.00604    0.11401   1.00
H2       0.58698    1.03727    0.15295   1.00
N1       0.60284    0.97766    0.15875   1.00
C6       0.59870    0.93894    0.15356   1.00
C6       0.63707    0.98355    0.17712   1.00
C6       0.63055    0.91978    0.16898   1.00
C6       0.65496    0.94816    0.18396   1.00
H3       0.57390    0.92528    0.13951   1.00
H3       0.64853    1.01186    0.18516   1.00
H3       0.63545    0.88862    0.16924   1.00
H3       0.68272    0.94354    0.19820   1.00
C4       0.99968    0.49930    0.72917   1.00
C4       1.00032    0.50070    0.77083   1.00
C3       0.96995    0.47942    0.70846   1.00
C3       0.96594    0.50531    0.79321   1.00
C3       1.02832    0.51858    0.70643   1.00
C3       1.03563    0.49654    0.79187   1.00
C2       0.99753    0.49820    0.64487   1.00
C2       1.00217    0.50169    0.85514   1.00
C3       0.96900    0.47889    0.66715   1.00
C3       0.96693    0.50584    0.83449   1.00
C3       1.02720    0.51798    0.66514   1.00
C3a      1.03675    0.49706    0.83328   1.00
H1       0.94746    0.46385    0.72425   1.00
H1       0.93810    0.50901    0.77875   1.00
H1       0.94583    0.46330    0.65240   1.00
H1       0.93999    0.50961    0.85056   1.00
H1       1.04952    0.53326    0.64882   1.00
C5       1.07529    0.49223    0.85380   1.00
H1       1.06275    0.49259    0.77622   1.00
H1       1.05135    0.53493    0.72059   1.00
H2       1.07165    0.49396    0.88599   1.00
H2       1.08698    0.46273    0.84705   1.00
N1       1.10284    0.52234    0.84125   1.00
C6       1.09870    0.56106    0.84644   1.00
C6       1.13707    0.51645    0.82288   1.00
C6       1.13055    0.58022    0.83102   1.00
C6       1.15496    0.55184    0.81604   1.00
H3       1.07390    0.57472    0.86049   1.00
H3       1.14853    0.48814    0.81484   1.00
H3       1.13545    0.61138    0.83076   1.00
H3       1.18272    0.55646    0.80180   1.00
C4       0.99930    0.72917    0.49968   1.00
C4       1.00070    0.77083    0.50032   1.00
C3       0.97942    0.70846    0.46995   1.00
C3       1.00531    0.79321    0.46594   1.00
C3       1.01858    0.70643    0.52832   1.00
C3       0.99654    0.79187    0.53563   1.00
C2       0.99820    0.64487    0.49753   1.00
C2       1.00169    0.85514    0.50217   1.00
C3       0.97889    0.66715    0.46900   1.00
C3       1.00584    0.83449    0.46693   1.00
C3       1.01798    0.66514    0.52720   1.00
C3a      0.99706    0.83328    0.53675   1.00
H1       0.96385    0.72425    0.44746   1.00
H1       1.00901    0.77875    0.43810   1.00
H1       0.96330    0.65240    0.44583   1.00
H1       1.00961    0.85056    0.43999   1.00
H1       1.03326    0.64882    0.54952   1.00
C5       0.99223    0.85380    0.57529   1.00
H1       0.99259    0.77622    0.56275   1.00
H1       1.03493    0.72059    0.55135   1.00
H2       0.99396    0.88599    0.57165   1.00
H2       0.96273    0.84705    0.58698   1.00
N1       1.02234    0.84125    0.60284   1.00
C6       1.06106    0.84644    0.59870   1.00
C6       1.01645    0.82288    0.63707   1.00
C6       1.08022    0.83102    0.63055   1.00
C6       1.05184    0.81604    0.65496   1.00
H3       1.07472    0.86049    0.57390   1.00
H3       0.98814    0.81484    0.64853   1.00
H3       1.11138    0.83076    0.63545   1.00
H3       1.05646    0.80180    0.68272   1.00
C4       0.77083    0.49968    0.50070   1.00
C4       0.72917    0.50032    0.49930   1.00
C3       0.79154    0.46995    0.52058   1.00
C3       0.70679    0.46594    0.49469   1.00
C3       0.79357    0.52832    0.48142   1.00
C3       0.70813    0.53563    0.50346   1.00
C2       0.85513    0.49753    0.50180   1.00
C2       0.64486    0.50217    0.49831   1.00
C3       0.83285    0.46900    0.52111   1.00
C3       0.66551    0.46693    0.49416   1.00
C3       0.83486    0.52720    0.48202   1.00
C3a      0.66672    0.53675    0.50294   1.00
H1       0.77575    0.44746    0.53615   1.00
H1       0.72125    0.43810    0.49099   1.00
H1       0.84760    0.44583    0.53670   1.00
H1       0.64944    0.43999    0.49039   1.00
H1       0.85118    0.54952    0.46674   1.00
C5       0.64620    0.57529    0.50777   1.00
H1       0.72378    0.56275    0.50741   1.00
H1       0.77941    0.55135    0.46507   1.00
H2       0.61401    0.57165    0.50604   1.00
H2       0.65295    0.58698    0.53727   1.00
N1       0.65875    0.60284    0.47766   1.00
C6       0.65356    0.59870    0.43894   1.00
C6       0.67712    0.63707    0.48355   1.00
C6       0.66898    0.63055    0.41978   1.00
C6       0.68396    0.65496    0.44816   1.00
H3       0.63951    0.57390    0.42528   1.00
H3       0.68516    0.64853    0.51186   1.00
H3       0.66924    0.63545    0.38862   1.00
H3       0.69820    0.68272    0.44354   1.00
C4       1.22917    0.49968    0.49930   1.00
C4       1.27083    0.50032    0.50070   1.00
C3       1.20846    0.46995    0.47942   1.00
C3       1.29321    0.46594    0.50531   1.00
C3       1.20643    0.52832    0.51858   1.00
C3       1.29187    0.53563    0.49654   1.00
C2       1.14487    0.49753    0.49820   1.00
C2       1.35514    0.50217    0.50169   1.00
C3       1.16715    0.46900    0.47889   1.00
C3       1.33449    0.46693    0.50584   1.00
C3       1.16514    0.52720    0.51798   1.00
C3a      1.33328    0.53675    0.49706   1.00
H1       1.22425    0.44746    0.46385   1.00
H1       1.27875    0.43810    0.50901   1.00
H1       1.15240    0.44583    0.46330   1.00
H1       1.35056    0.43999    0.50961   1.00
H1       1.14882    0.54952    0.53326   1.00
C5       1.35380    0.57529    0.49223   1.00
H1       1.27622    0.56275    0.49259   1.00
H1       1.22059    0.55135    0.53493   1.00
H2       1.38599    0.57165    0.49396   1.00
H2       1.34705    0.58698    0.46273   1.00
N1       1.34125    0.60284    0.52234   1.00
C6       1.34644    0.59870    0.56106   1.00
C6       1.32288    0.63707    0.51645   1.00
C6       1.33102    0.63055    0.58022   1.00
C6       1.31604    0.65496    0.55184   1.00
H3       1.36049    0.57390    0.57472   1.00
H3       1.31484    0.64853    0.48814   1.00
H3       1.33076    0.63545    0.61138   1.00
H3       1.30180    0.68272    0.55646   1.00
C4       1.00070    0.27083    0.49968   1.00
C4       0.99930    0.22917    0.50032   1.00
C3       1.02058    0.29154    0.46995   1.00
C3       0.99469    0.20679    0.46594   1.00
C3       0.98142    0.29357    0.52832   1.00
C3       1.00346    0.20813    0.53563   1.00
C2       1.00180    0.35513    0.49753   1.00
C2       0.99831    0.14486    0.50217   1.00
C3       1.02111    0.33285    0.46900   1.00
C3       0.99416    0.16551    0.46693   1.00
C3       0.98202    0.33486    0.52720   1.00
C3a      1.00294    0.16672    0.53675   1.00
H1       1.03615    0.27575    0.44746   1.00
H1       0.99099    0.22125    0.43810   1.00
H1       1.03670    0.34760    0.44583   1.00
H1       0.99039    0.14944    0.43999   1.00
H1       0.96674    0.35118    0.54952   1.00
C5       1.00777    0.14620    0.57529   1.00
H1       1.00741    0.22378    0.56275   1.00
H1       0.96507    0.27941    0.55135   1.00
H2       1.00604    0.11401    0.57165   1.00
H2       1.03727    0.15295    0.58698   1.00
N1       0.97766    0.15875    0.60284   1.00
C6       0.93894    0.15356    0.59870   1.00
C6       0.98355    0.17712    0.63707   1.00
C6       0.91978    0.16898    0.63055   1.00
C6       0.94816    0.18396    0.65496   1.00
H3       0.92528    0.13951    0.57390   1.00
H3       1.01186    0.18516    0.64853   1.00
H3       0.88862    0.16924    0.63545   1.00
H3       0.94354    0.19820    0.68272   1.00
C4       0.99968    0.50070    0.27083   1.00
C4       1.00032    0.49930    0.22917   1.00
C3       0.96995    0.52058    0.29154   1.00
C3       0.96594    0.49469    0.20679   1.00
C3       1.02832    0.48142    0.29357   1.00
C3       1.03563    0.50346    0.20813   1.00
C2       0.99753    0.50180    0.35513   1.00
C2       1.00217    0.49831    0.14486   1.00
C3       0.96900    0.52111    0.33285   1.00
C3       0.96693    0.49416    0.16551   1.00
C3       1.02720    0.48202    0.33486   1.00
C3a      1.03675    0.50294    0.16672   1.00
H1       0.94746    0.53615    0.27575   1.00
H1       0.93810    0.49099    0.22125   1.00
H1       0.94583    0.53670    0.34760   1.00
H1       0.93999    0.49039    0.14944   1.00
H1       1.04952    0.46674    0.35118   1.00
C5       1.07529    0.50777    0.14620   1.00
H1       1.06275    0.50741    0.22378   1.00
H1       1.05135    0.46507    0.27941   1.00
H2       1.07165    0.50604    0.11401   1.00
H2       1.08698    0.53727    0.15295   1.00
N1       1.10284    0.47766    0.15875   1.00
C6       1.09870    0.43894    0.15356   1.00
C6       1.13707    0.48355    0.17712   1.00
C6       1.13055    0.41978    0.16898   1.00
C6       1.15496    0.44816    0.18396   1.00
H3       1.07390    0.42528    0.13951   1.00
H3       1.14853    0.51186    0.18516   1.00
H3       1.13545    0.38862    0.16924   1.00
H3       1.18272    0.44354    0.19820   1.00
