data_IRMOF10_SG202_interpen_Ligand12lp_label_x.

_audit_creation_method             'generated by an auxiliary program of Tobunporous'

_symmetry_space_group_name_H-M     'P 1'
_symmetry_Int_Tables_number        1
_symmetry_cell_setting             triclinic

_cell_length_a                    34.2800
_cell_length_b                    34.2800
_cell_length_c                    34.2800
_cell_angle_alpha                 90.0000
_cell_angle_beta                  90.0000
_cell_angle_gamma                 90.0000

loop_
_atom_site_label
_atom_site_fract_x
_atom_site_fract_y
_atom_site_fract_z
_atom_site_occupancy
O1       0.75000    0.75000    0.75000   1.00
Zn1      0.71720    0.78280    0.78280   1.00
Zn1      0.78280    0.71720    0.78280   1.00
Zn1      0.78280    0.78280    0.71720   1.00
Zn1      0.71720    0.71720    0.71720   1.00
O2       0.72650    0.77350    0.83820   1.00
O2       0.72650    0.83820    0.77350   1.00
O2       0.66180    0.77350    0.77350   1.00
O2       0.77350    0.72650    0.83820   1.00
O2       0.83820    0.72650    0.77350   1.00
O2       0.77350    0.66180    0.77350   1.00
O2       0.77350    0.83820    0.72650   1.00
O2       0.83820    0.77350    0.72650   1.00
O2       0.77350    0.77350    0.66180   1.00
O2       0.66180    0.72650    0.72650   1.00
O2       0.72650    0.66180    0.72650   1.00
O2       0.72650    0.72650    0.66180   1.00
C1       0.75000    0.75000    0.85520   1.00
C1       0.75000    0.85520    0.75000   1.00
C1       0.64480    0.75000    0.75000   1.00
C1       0.85520    0.75000    0.75000   1.00
C1       0.75000    0.64480    0.75000   1.00
C1       0.75000    0.75000    0.64480   1.00
O1       0.25000    0.25000    0.75000   1.00
Zn1      0.21720    0.28280    0.78280   1.00
Zn1      0.28280    0.21720    0.78280   1.00
Zn1      0.28280    0.28280    0.71720   1.00
Zn1      0.21720    0.21720    0.71720   1.00
O2       0.22650    0.27350    0.83820   1.00
O2       0.22650    0.33820    0.77350   1.00
O2       0.16180    0.27350    0.77350   1.00
O2       0.27350    0.22650    0.83820   1.00
O2       0.33820    0.22650    0.77350   1.00
O2       0.27350    0.16180    0.77350   1.00
O2       0.27350    0.33820    0.72650   1.00
O2       0.33820    0.27350    0.72650   1.00
O2       0.27350    0.27350    0.66180   1.00
O2       0.16180    0.22650    0.72650   1.00
O2       0.22650    0.16180    0.72650   1.00
O2       0.22650    0.22650    0.66180   1.00
C1       0.25000    0.25000    0.85520   1.00
C1       0.25000    0.35520    0.75000   1.00
C1       0.14480    0.25000    0.75000   1.00
C1       0.35520    0.25000    0.75000   1.00
C1       0.25000    0.14480    0.75000   1.00
C1       0.25000    0.25000    0.64480   1.00
O1       0.25000    0.75000    0.25000   1.00
Zn1      0.21720    0.78280    0.28280   1.00
Zn1      0.28280    0.71720    0.28280   1.00
Zn1      0.28280    0.78280    0.21720   1.00
Zn1      0.21720    0.71720    0.21720   1.00
O2       0.22650    0.77350    0.33820   1.00
O2       0.22650    0.83820    0.27350   1.00
O2       0.16180    0.77350    0.27350   1.00
O2       0.27350    0.72650    0.33820   1.00
O2       0.33820    0.72650    0.27350   1.00
O2       0.27350    0.66180    0.27350   1.00
O2       0.27350    0.83820    0.22650   1.00
O2       0.33820    0.77350    0.22650   1.00
O2       0.27350    0.77350    0.16180   1.00
O2       0.16180    0.72650    0.22650   1.00
O2       0.22650    0.66180    0.22650   1.00
O2       0.22650    0.72650    0.16180   1.00
C1       0.25000    0.75000    0.35520   1.00
C1       0.25000    0.85520    0.25000   1.00
C1       0.14480    0.75000    0.25000   1.00
C1       0.35520    0.75000    0.25000   1.00
C1       0.25000    0.64480    0.25000   1.00
C1       0.25000    0.75000    0.14480   1.00
O1       0.75000    0.25000    0.25000   1.00
Zn1      0.71720    0.28280    0.28280   1.00
Zn1      0.78280    0.21720    0.28280   1.00
Zn1      0.78280    0.28280    0.21720   1.00
Zn1      0.71720    0.21720    0.21720   1.00
O2       0.72650    0.27350    0.33820   1.00
O2       0.72650    0.33820    0.27350   1.00
O2       0.66180    0.27350    0.27350   1.00
O2       0.77350    0.22650    0.33820   1.00
O2       0.83820    0.22650    0.27350   1.00
O2       0.77350    0.16180    0.27350   1.00
O2       0.77350    0.33820    0.22650   1.00
O2       0.83820    0.27350    0.22650   1.00
O2       0.77350    0.27350    0.16180   1.00
O2       0.66180    0.22650    0.22650   1.00
O2       0.72650    0.16180    0.22650   1.00
O2       0.72650    0.22650    0.16180   1.00
C1       0.75000    0.25000    0.35520   1.00
C1       0.75000    0.35520    0.25000   1.00
C1       0.64480    0.25000    0.25000   1.00
C1       0.85520    0.25000    0.25000   1.00
C1       0.75000    0.14480    0.25000   1.00
C1       0.75000    0.25000    0.14480   1.00
O1       0.25000    0.25000    0.25000   1.00
Zn1      0.28280    0.21720    0.21720   1.00
Zn1      0.21720    0.28280    0.21720   1.00
Zn1      0.21720    0.21720    0.28280   1.00
Zn1      0.28280    0.28280    0.28280   1.00
O2       0.27350    0.22650    0.16180   1.00
O2       0.27350    0.16180    0.22650   1.00
O2       0.33820    0.22650    0.22650   1.00
O2       0.22650    0.27350    0.16180   1.00
O2       0.16180    0.27350    0.22650   1.00
O2       0.22650    0.33820    0.22650   1.00
O2       0.22650    0.16180    0.27350   1.00
O2       0.16180    0.22650    0.27350   1.00
O2       0.22650    0.22650    0.33820   1.00
O2       0.33820    0.27350    0.27350   1.00
O2       0.27350    0.33820    0.27350   1.00
O2       0.27350    0.27350    0.33820   1.00
C1       0.25000    0.25000    0.14480   1.00
C1       0.25000    0.14480    0.25000   1.00
C1       0.35520    0.25000    0.25000   1.00
C1       0.14480    0.25000    0.25000   1.00
C1       0.25000    0.35520    0.25000   1.00
C1       0.25000    0.25000    0.35520   1.00
O1       0.75000    0.75000    0.25000   1.00
Zn1      0.78280    0.71720    0.21720   1.00
Zn1      0.71720    0.78280    0.21720   1.00
Zn1      0.71720    0.71720    0.28280   1.00
Zn1      0.78280    0.78280    0.28280   1.00
O2       0.77350    0.72650    0.16180   1.00
O2       0.77350    0.66180    0.22650   1.00
O2       0.83820    0.72650    0.22650   1.00
O2       0.72650    0.77350    0.16180   1.00
O2       0.66180    0.77350    0.22650   1.00
O2       0.72650    0.83820    0.22650   1.00
O2       0.72650    0.66180    0.27350   1.00
O2       0.66180    0.72650    0.27350   1.00
O2       0.72650    0.72650    0.33820   1.00
O2       0.83820    0.77350    0.27350   1.00
O2       0.77350    0.83820    0.27350   1.00
O2       0.77350    0.77350    0.33820   1.00
C1       0.75000    0.75000    0.14480   1.00
C1       0.75000    0.64480    0.25000   1.00
C1       0.85520    0.75000    0.25000   1.00
C1       0.64480    0.75000    0.25000   1.00
C1       0.75000    0.85520    0.25000   1.00
C1       0.75000    0.75000    0.35520   1.00
O1       0.75000    0.25000    0.75000   1.00
Zn1      0.78280    0.21720    0.71720   1.00
Zn1      0.71720    0.28280    0.71720   1.00
Zn1      0.71720    0.21720    0.78280   1.00
Zn1      0.78280    0.28280    0.78280   1.00
O2       0.77350    0.22650    0.66180   1.00
O2       0.77350    0.16180    0.72650   1.00
O2       0.83820    0.22650    0.72650   1.00
O2       0.72650    0.27350    0.66180   1.00
O2       0.66180    0.27350    0.72650   1.00
O2       0.72650    0.33820    0.72650   1.00
O2       0.72650    0.16180    0.77350   1.00
O2       0.66180    0.22650    0.77350   1.00
O2       0.72650    0.22650    0.83820   1.00
O2       0.83820    0.27350    0.77350   1.00
O2       0.77350    0.33820    0.77350   1.00
O2       0.77350    0.27350    0.83820   1.00
C1       0.75000    0.25000    0.64480   1.00
C1       0.75000    0.14480    0.75000   1.00
C1       0.85520    0.25000    0.75000   1.00
C1       0.64480    0.25000    0.75000   1.00
C1       0.75000    0.35520    0.75000   1.00
C1       0.75000    0.25000    0.85520   1.00
O1       0.25000    0.75000    0.75000   1.00
Zn1      0.28280    0.71720    0.71720   1.00
Zn1      0.21720    0.78280    0.71720   1.00
Zn1      0.21720    0.71720    0.78280   1.00
Zn1      0.28280    0.78280    0.78280   1.00
O2       0.27350    0.72650    0.66180   1.00
O2       0.27350    0.66180    0.72650   1.00
O2       0.33820    0.72650    0.72650   1.00
O2       0.22650    0.77350    0.66180   1.00
O2       0.16180    0.77350    0.72650   1.00
O2       0.22650    0.83820    0.72650   1.00
O2       0.22650    0.66180    0.77350   1.00
O2       0.16180    0.72650    0.77350   1.00
O2       0.22650    0.72650    0.83820   1.00
O2       0.33820    0.77350    0.77350   1.00
O2       0.27350    0.83820    0.77350   1.00
O2       0.27350    0.77350    0.83820   1.00
C1       0.25000    0.75000    0.64480   1.00
C1       0.25000    0.64480    0.75000   1.00
C1       0.35520    0.75000    0.75000   1.00
C1       0.14480    0.75000    0.75000   1.00
C1       0.25000    0.85520    0.75000   1.00
C1       0.25000    0.75000    0.85520   1.00
O1       1.00000    1.00000    1.00000   1.00
Zn1      0.96720    1.03280    1.03280   1.00
Zn1      1.03280    0.96720    1.03280   1.00
Zn1      1.03280    1.03280    0.96720   1.00
Zn1      0.96720    0.96720    0.96720   1.00
O2       0.97650    1.02350    1.08820   1.00
O2       0.97650    1.08820    1.02350   1.00
O2       0.91180    1.02350    1.02350   1.00
O2       1.02350    0.97650    1.08820   1.00
O2       1.08820    0.97650    1.02350   1.00
O2       1.02350    0.91180    1.02350   1.00
O2       1.02350    1.08820    0.97650   1.00
O2       1.08820    1.02350    0.97650   1.00
O2       1.02350    1.02350    0.91180   1.00
O2       0.91180    0.97650    0.97650   1.00
O2       0.97650    0.91180    0.97650   1.00
O2       0.97650    0.97650    0.91180   1.00
C1       1.00000    1.00000    1.10520   1.00
C1       1.00000    1.10520    1.00000   1.00
C1       0.89480    1.00000    1.00000   1.00
C1       1.10520    1.00000    1.00000   1.00
C1       1.00000    0.89480    1.00000   1.00
C1       1.00000    1.00000    0.89480   1.00
O1       0.50000    0.50000    1.00000   1.00
Zn1      0.46720    0.53280    1.03280   1.00
Zn1      0.53280    0.46720    1.03280   1.00
Zn1      0.53280    0.53280    0.96720   1.00
Zn1      0.46720    0.46720    0.96720   1.00
O2       0.47650    0.52350    1.08820   1.00
O2       0.47650    0.58820    1.02350   1.00
O2       0.41180    0.52350    1.02350   1.00
O2       0.52350    0.47650    1.08820   1.00
O2       0.58820    0.47650    1.02350   1.00
O2       0.52350    0.41180    1.02350   1.00
O2       0.52350    0.58820    0.97650   1.00
O2       0.58820    0.52350    0.97650   1.00
O2       0.52350    0.52350    0.91180   1.00
O2       0.41180    0.47650    0.97650   1.00
O2       0.47650    0.41180    0.97650   1.00
O2       0.47650    0.47650    0.91180   1.00
C1       0.50000    0.50000    1.10520   1.00
C1       0.50000    0.60520    1.00000   1.00
C1       0.39480    0.50000    1.00000   1.00
C1       0.60520    0.50000    1.00000   1.00
C1       0.50000    0.39480    1.00000   1.00
C1       0.50000    0.50000    0.89480   1.00
O1       0.50000    1.00000    0.50000   1.00
Zn1      0.46720    1.03280    0.53280   1.00
Zn1      0.53280    0.96720    0.53280   1.00
Zn1      0.53280    1.03280    0.46720   1.00
Zn1      0.46720    0.96720    0.46720   1.00
O2       0.47650    1.02350    0.58820   1.00
O2       0.47650    1.08820    0.52350   1.00
O2       0.41180    1.02350    0.52350   1.00
O2       0.52350    0.97650    0.58820   1.00
O2       0.58820    0.97650    0.52350   1.00
O2       0.52350    0.91180    0.52350   1.00
O2       0.52350    1.08820    0.47650   1.00
O2       0.58820    1.02350    0.47650   1.00
O2       0.52350    1.02350    0.41180   1.00
O2       0.41180    0.97650    0.47650   1.00
O2       0.47650    0.91180    0.47650   1.00
O2       0.47650    0.97650    0.41180   1.00
C1       0.50000    1.00000    0.60520   1.00
C1       0.50000    1.10520    0.50000   1.00
C1       0.39480    1.00000    0.50000   1.00
C1       0.60520    1.00000    0.50000   1.00
C1       0.50000    0.89480    0.50000   1.00
C1       0.50000    1.00000    0.39480   1.00
O1       1.00000    0.50000    0.50000   1.00
Zn1      0.96720    0.53280    0.53280   1.00
Zn1      1.03280    0.46720    0.53280   1.00
Zn1      1.03280    0.53280    0.46720   1.00
Zn1      0.96720    0.46720    0.46720   1.00
O2       0.97650    0.52350    0.58820   1.00
O2       0.97650    0.58820    0.52350   1.00
O2       0.91180    0.52350    0.52350   1.00
O2       1.02350    0.47650    0.58820   1.00
O2       1.08820    0.47650    0.52350   1.00
O2       1.02350    0.41180    0.52350   1.00
O2       1.02350    0.58820    0.47650   1.00
O2       1.08820    0.52350    0.47650   1.00
O2       1.02350    0.52350    0.41180   1.00
O2       0.91180    0.47650    0.47650   1.00
O2       0.97650    0.41180    0.47650   1.00
O2       0.97650    0.47650    0.41180   1.00
C1       1.00000    0.50000    0.60520   1.00
C1       1.00000    0.60520    0.50000   1.00
C1       0.89480    0.50000    0.50000   1.00
C1       1.10520    0.50000    0.50000   1.00
C1       1.00000    0.39480    0.50000   1.00
C1       1.00000    0.50000    0.39480   1.00
O1       0.50000    0.50000    0.50000   1.00
Zn1      0.53280    0.46720    0.46720   1.00
Zn1      0.46720    0.53280    0.46720   1.00
Zn1      0.46720    0.46720    0.53280   1.00
Zn1      0.53280    0.53280    0.53280   1.00
O2       0.52350    0.47650    0.41180   1.00
O2       0.52350    0.41180    0.47650   1.00
O2       0.58820    0.47650    0.47650   1.00
O2       0.47650    0.52350    0.41180   1.00
O2       0.41180    0.52350    0.47650   1.00
O2       0.47650    0.58820    0.47650   1.00
O2       0.47650    0.41180    0.52350   1.00
O2       0.41180    0.47650    0.52350   1.00
O2       0.47650    0.47650    0.58820   1.00
O2       0.58820    0.52350    0.52350   1.00
O2       0.52350    0.58820    0.52350   1.00
O2       0.52350    0.52350    0.58820   1.00
C1       0.50000    0.50000    0.39480   1.00
C1       0.50000    0.39480    0.50000   1.00
C1       0.60520    0.50000    0.50000   1.00
C1       0.39480    0.50000    0.50000   1.00
C1       0.50000    0.60520    0.50000   1.00
C1       0.50000    0.50000    0.60520   1.00
O1       1.00000    1.00000    0.50000   1.00
Zn1      1.03280    0.96720    0.46720   1.00
Zn1      0.96720    1.03280    0.46720   1.00
Zn1      0.96720    0.96720    0.53280   1.00
Zn1      1.03280    1.03280    0.53280   1.00
O2       1.02350    0.97650    0.41180   1.00
O2       1.02350    0.91180    0.47650   1.00
O2       1.08820    0.97650    0.47650   1.00
O2       0.97650    1.02350    0.41180   1.00
O2       0.91180    1.02350    0.47650   1.00
O2       0.97650    1.08820    0.47650   1.00
O2       0.97650    0.91180    0.52350   1.00
O2       0.91180    0.97650    0.52350   1.00
O2       0.97650    0.97650    0.58820   1.00
O2       1.08820    1.02350    0.52350   1.00
O2       1.02350    1.08820    0.52350   1.00
O2       1.02350    1.02350    0.58820   1.00
C1       1.00000    1.00000    0.39480   1.00
C1       1.00000    0.89480    0.50000   1.00
C1       1.10520    1.00000    0.50000   1.00
C1       0.89480    1.00000    0.50000   1.00
C1       1.00000    1.10520    0.50000   1.00
C1       1.00000    1.00000    0.60520   1.00
O1       1.00000    0.50000    1.00000   1.00
Zn1      1.03280    0.46720    0.96720   1.00
Zn1      0.96720    0.53280    0.96720   1.00
Zn1      0.96720    0.46720    1.03280   1.00
Zn1      1.03280    0.53280    1.03280   1.00
O2       1.02350    0.47650    0.91180   1.00
O2       1.02350    0.41180    0.97650   1.00
O2       1.08820    0.47650    0.97650   1.00
O2       0.97650    0.52350    0.91180   1.00
O2       0.91180    0.52350    0.97650   1.00
O2       0.97650    0.58820    0.97650   1.00
O2       0.97650    0.41180    1.02350   1.00
O2       0.91180    0.47650    1.02350   1.00
O2       0.97650    0.47650    1.08820   1.00
O2       1.08820    0.52350    1.02350   1.00
O2       1.02350    0.58820    1.02350   1.00
O2       1.02350    0.52350    1.08820   1.00
C1       1.00000    0.50000    0.89480   1.00
C1       1.00000    0.39480    1.00000   1.00
C1       1.10520    0.50000    1.00000   1.00
C1       0.89480    0.50000    1.00000   1.00
C1       1.00000    0.60520    1.00000   1.00
C1       1.00000    0.50000    1.10520   1.00
O1       0.50000    1.00000    1.00000   1.00
Zn1      0.53280    0.96720    0.96720   1.00
Zn1      0.46720    1.03280    0.96720   1.00
Zn1      0.46720    0.96720    1.03280   1.00
Zn1      0.53280    1.03280    1.03280   1.00
O2       0.52350    0.97650    0.91180   1.00
O2       0.52350    0.91180    0.97650   1.00
O2       0.58820    0.97650    0.97650   1.00
O2       0.47650    1.02350    0.91180   1.00
O2       0.41180    1.02350    0.97650   1.00
O2       0.47650    1.08820    0.97650   1.00
O2       0.47650    0.91180    1.02350   1.00
O2       0.41180    0.97650    1.02350   1.00
O2       0.47650    0.97650    1.08820   1.00
O2       0.58820    1.02350    1.02350   1.00
O2       0.52350    1.08820    1.02350   1.00
O2       0.52350    1.02350    1.08820   1.00
C1       0.50000    1.00000    0.89480   1.00
C1       0.50000    0.89480    1.00000   1.00
C1       0.60520    1.00000    1.00000   1.00
C1       0.39480    1.00000    1.00000   1.00
C1       0.50000    1.10520    1.00000   1.00
C1       0.50000    1.00000    1.10520   1.00
C4       0.74925    0.75020    1.02067   1.00
C4       0.75075    0.74980    0.97933   1.00
C3       0.75480    0.78511    1.04244   1.00
C3       0.76339    0.78281    0.95756   1.00
C4       0.74234    0.71500    1.04150   1.00
C4       0.73914    0.71586    0.95850   1.00
C2       0.75018    0.75060    1.10352   1.00
C2       0.75015    0.75061    0.89648   1.00
C3       0.75559    0.78504    1.08310   1.00
C3       0.76268    0.78314    0.91690   1.00
C3       0.74309    0.71604    1.08306   1.00
C3       0.73901    0.71713    0.91694   1.00
H1       0.75771    0.81329    1.02888   1.00
H1       0.77496    0.80867    0.97112   1.00
C5       0.73431    0.67989    1.02065   1.00
C5       0.72854    0.68143    0.97935   1.00
H1       0.76020    0.81204    1.09886   1.00
H1       0.77218    0.80883    0.90114   1.00
H1       0.73764    0.69046    1.10053   1.00
H1       0.73094    0.69225    0.89947   1.00
C6       0.73346    0.64088    1.04234   1.00
C6       0.70978    0.64723    0.95766   1.00
H2       0.74507    0.61718    1.02358   1.00
H2       0.75380    0.64052    1.06737   1.00
C6       0.69222    0.63152    1.05724   1.00
H2       0.68788    0.63250    0.97642   1.00
H2       0.69198    0.65708    0.93263   1.00
C6       0.74081    0.61850    0.94276   1.00
H2       0.67095    0.63070    1.03274   1.00
C6       0.69175    0.59229    1.07832   1.00
H2       0.68226    0.65480    1.07760   1.00
C6       0.72161    0.58429    0.92168   1.00
H2       0.76108    0.63369    0.92240   1.00
H2       0.75883    0.60716    0.96726   1.00
H2       0.70079    0.56850    1.05822   1.00
H2       0.71180    0.59281    1.10380   1.00
H2       0.66182    0.58589    1.08898   1.00
H2       0.70189    0.56821    0.94178   1.00
H2       0.70451    0.59476    0.89620   1.00
H2       0.74434    0.56378    0.91102   1.00
C4       0.75020    1.02067    0.74925   1.00
C4       0.74980    0.97933    0.75075   1.00
C3       0.78511    1.04244    0.75480   1.00
C3       0.78281    0.95756    0.76339   1.00
C4       0.71500    1.04150    0.74234   1.00
C4       0.71586    0.95850    0.73914   1.00
C2       0.75060    1.10352    0.75018   1.00
C2       0.75061    0.89648    0.75015   1.00
C3       0.78504    1.08310    0.75559   1.00
C3       0.78314    0.91690    0.76268   1.00
C3       0.71604    1.08306    0.74309   1.00
C3       0.71713    0.91694    0.73901   1.00
H1       0.81329    1.02888    0.75771   1.00
H1       0.80867    0.97112    0.77496   1.00
C5       0.67989    1.02065    0.73431   1.00
C5       0.68143    0.97935    0.72854   1.00
H1       0.81204    1.09886    0.76020   1.00
H1       0.80883    0.90114    0.77218   1.00
H1       0.69046    1.10053    0.73764   1.00
H1       0.69225    0.89947    0.73094   1.00
C6       0.64088    1.04234    0.73346   1.00
C6       0.64723    0.95766    0.70978   1.00
H2       0.61718    1.02358    0.74507   1.00
H2       0.64052    1.06737    0.75380   1.00
C6       0.63152    1.05724    0.69222   1.00
H2       0.63250    0.97642    0.68788   1.00
H2       0.65708    0.93263    0.69198   1.00
C6       0.61850    0.94276    0.74081   1.00
H2       0.63070    1.03274    0.67095   1.00
C6       0.59229    1.07832    0.69175   1.00
H2       0.65480    1.07760    0.68226   1.00
C6       0.58429    0.92168    0.72161   1.00
H2       0.63369    0.92240    0.76108   1.00
H2       0.60716    0.96726    0.75883   1.00
H2       0.56850    1.05822    0.70079   1.00
H2       0.59281    1.10380    0.71180   1.00
H2       0.58589    1.08898    0.66182   1.00
H2       0.56821    0.94178    0.70189   1.00
H2       0.59476    0.89620    0.70451   1.00
H2       0.56378    0.91102    0.74434   1.00
C4       0.47933    0.74925    0.74980   1.00
C4       0.52067    0.75075    0.75020   1.00
C3       0.45756    0.75480    0.71489   1.00
C3       0.54244    0.76339    0.71719   1.00
C4       0.45850    0.74234    0.78500   1.00
C4       0.54150    0.73914    0.78414   1.00
C2       0.39648    0.75018    0.74940   1.00
C2       0.60352    0.75015    0.74939   1.00
C3       0.41690    0.75559    0.71496   1.00
C3       0.58310    0.76268    0.71686   1.00
C3       0.41694    0.74309    0.78396   1.00
C3       0.58306    0.73901    0.78287   1.00
H1       0.47112    0.75771    0.68671   1.00
H1       0.52888    0.77496    0.69133   1.00
C5       0.47935    0.73431    0.82011   1.00
C5       0.52065    0.72854    0.81857   1.00
H1       0.40114    0.76020    0.68796   1.00
H1       0.59886    0.77218    0.69117   1.00
H1       0.39947    0.73764    0.80954   1.00
H1       0.60053    0.73094    0.80775   1.00
C6       0.45766    0.73346    0.85912   1.00
C6       0.54234    0.70978    0.85277   1.00
H2       0.47642    0.74507    0.88282   1.00
H2       0.43263    0.75380    0.85948   1.00
C6       0.44276    0.69222    0.86848   1.00
H2       0.52358    0.68788    0.86750   1.00
H2       0.56737    0.69198    0.84292   1.00
C6       0.55724    0.74081    0.88150   1.00
H2       0.46726    0.67095    0.86930   1.00
C6       0.42168    0.69175    0.90771   1.00
H2       0.42240    0.68226    0.84520   1.00
C6       0.57832    0.72161    0.91571   1.00
H2       0.57760    0.76108    0.86631   1.00
H2       0.53274    0.75883    0.89284   1.00
H2       0.44178    0.70079    0.93150   1.00
H2       0.39620    0.71180    0.90719   1.00
H2       0.41102    0.66182    0.91411   1.00
H2       0.55822    0.70189    0.93179   1.00
H2       0.60380    0.70451    0.90524   1.00
H2       0.58898    0.74434    0.93622   1.00
C4       1.02067    0.74925    0.75020   1.00
C4       0.97933    0.75075    0.74980   1.00
C3       1.04244    0.75480    0.78511   1.00
C3       0.95756    0.76339    0.78281   1.00
C4       1.04150    0.74234    0.71500   1.00
C4       0.95850    0.73914    0.71586   1.00
C2       1.10352    0.75018    0.75060   1.00
C2       0.89648    0.75015    0.75061   1.00
C3       1.08310    0.75559    0.78504   1.00
C3       0.91690    0.76268    0.78314   1.00
C3       1.08306    0.74309    0.71604   1.00
C3       0.91694    0.73901    0.71713   1.00
H1       1.02888    0.75771    0.81329   1.00
H1       0.97112    0.77496    0.80867   1.00
C5       1.02065    0.73431    0.67989   1.00
C5       0.97935    0.72854    0.68143   1.00
H1       1.09886    0.76020    0.81204   1.00
H1       0.90114    0.77218    0.80883   1.00
H1       1.10053    0.73764    0.69046   1.00
H1       0.89947    0.73094    0.69225   1.00
C6       1.04234    0.73346    0.64088   1.00
C6       0.95766    0.70978    0.64723   1.00
H2       1.02358    0.74507    0.61718   1.00
H2       1.06737    0.75380    0.64052   1.00
C6       1.05724    0.69222    0.63152   1.00
H2       0.97642    0.68788    0.63250   1.00
H2       0.93263    0.69198    0.65708   1.00
C6       0.94276    0.74081    0.61850   1.00
H2       1.03274    0.67095    0.63070   1.00
C6       1.07832    0.69175    0.59229   1.00
H2       1.07760    0.68226    0.65480   1.00
C6       0.92168    0.72161    0.58429   1.00
H2       0.92240    0.76108    0.63369   1.00
H2       0.96726    0.75883    0.60716   1.00
H2       1.05822    0.70079    0.56850   1.00
H2       1.10380    0.71180    0.59281   1.00
H2       1.08898    0.66182    0.58589   1.00
H2       0.94178    0.70189    0.56821   1.00
H2       0.89620    0.70451    0.59476   1.00
H2       0.91102    0.74434    0.56378   1.00
C4       0.74980    0.47933    0.74925   1.00
C4       0.75020    0.52067    0.75075   1.00
C3       0.71489    0.45756    0.75480   1.00
C3       0.71719    0.54244    0.76339   1.00
C4       0.78500    0.45850    0.74234   1.00
C4       0.78414    0.54150    0.73914   1.00
C2       0.74940    0.39648    0.75018   1.00
C2       0.74939    0.60352    0.75015   1.00
C3       0.71496    0.41690    0.75559   1.00
C3       0.71686    0.58310    0.76268   1.00
C3       0.78396    0.41694    0.74309   1.00
C3       0.78287    0.58306    0.73901   1.00
H1       0.68671    0.47112    0.75771   1.00
H1       0.69133    0.52888    0.77496   1.00
C5       0.82011    0.47935    0.73431   1.00
C5       0.81857    0.52065    0.72854   1.00
H1       0.68796    0.40114    0.76020   1.00
H1       0.69117    0.59886    0.77218   1.00
H1       0.80954    0.39947    0.73764   1.00
H1       0.80775    0.60053    0.73094   1.00
C6       0.85912    0.45766    0.73346   1.00
C6       0.85277    0.54234    0.70978   1.00
H2       0.88282    0.47642    0.74507   1.00
H2       0.85948    0.43263    0.75380   1.00
C6       0.86848    0.44276    0.69222   1.00
H2       0.86750    0.52358    0.68788   1.00
H2       0.84292    0.56737    0.69198   1.00
C6       0.88150    0.55724    0.74081   1.00
H2       0.86930    0.46726    0.67095   1.00
C6       0.90771    0.42168    0.69175   1.00
H2       0.84520    0.42240    0.68226   1.00
C6       0.91571    0.57832    0.72161   1.00
H2       0.86631    0.57760    0.76108   1.00
H2       0.89284    0.53274    0.75883   1.00
H2       0.93150    0.44178    0.70079   1.00
H2       0.90719    0.39620    0.71180   1.00
H2       0.91411    0.41102    0.66182   1.00
H2       0.93179    0.55822    0.70189   1.00
H2       0.90524    0.60380    0.70451   1.00
H2       0.93622    0.58898    0.74434   1.00
C4       0.74925    0.74980    0.47933   1.00
C4       0.75075    0.75020    0.52067   1.00
C3       0.75480    0.71489    0.45756   1.00
C3       0.76339    0.71719    0.54244   1.00
C4       0.74234    0.78500    0.45850   1.00
C4       0.73914    0.78414    0.54150   1.00
C2       0.75018    0.74940    0.39648   1.00
C2       0.75015    0.74939    0.60352   1.00
C3       0.75559    0.71496    0.41690   1.00
C3       0.76268    0.71686    0.58310   1.00
C3       0.74309    0.78396    0.41694   1.00
C3       0.73901    0.78287    0.58306   1.00
H1       0.75771    0.68671    0.47112   1.00
H1       0.77496    0.69133    0.52888   1.00
C5       0.73431    0.82011    0.47935   1.00
C5       0.72854    0.81857    0.52065   1.00
H1       0.76020    0.68796    0.40114   1.00
H1       0.77218    0.69117    0.59886   1.00
H1       0.73764    0.80954    0.39947   1.00
H1       0.73094    0.80775    0.60053   1.00
C6       0.73346    0.85912    0.45766   1.00
C6       0.70978    0.85277    0.54234   1.00
H2       0.74507    0.88282    0.47642   1.00
H2       0.75380    0.85948    0.43263   1.00
C6       0.69222    0.86848    0.44276   1.00
H2       0.68788    0.86750    0.52358   1.00
H2       0.69198    0.84292    0.56737   1.00
C6       0.74081    0.88150    0.55724   1.00
H2       0.67095    0.86930    0.46726   1.00
C6       0.69175    0.90771    0.42168   1.00
H2       0.68226    0.84520    0.42240   1.00
C6       0.72161    0.91571    0.57832   1.00
H2       0.76108    0.86631    0.57760   1.00
H2       0.75883    0.89284    0.53274   1.00
H2       0.70079    0.93150    0.44178   1.00
H2       0.71180    0.90719    0.39620   1.00
H2       0.66182    0.91411    0.41102   1.00
H2       0.70189    0.93179    0.55822   1.00
H2       0.70451    0.90524    0.60380   1.00
H2       0.74434    0.93622    0.58898   1.00
C4       0.24925    0.25020    1.02067   1.00
C4       0.25075    0.24980    0.97933   1.00
C3       0.25480    0.28511    1.04244   1.00
C3       0.26339    0.28281    0.95756   1.00
C4       0.24234    0.21500    1.04150   1.00
C4       0.23914    0.21586    0.95850   1.00
C2       0.25018    0.25060    1.10352   1.00
C2       0.25015    0.25061    0.89648   1.00
C3       0.25559    0.28504    1.08310   1.00
C3       0.26268    0.28314    0.91690   1.00
C3       0.24309    0.21604    1.08306   1.00
C3       0.23901    0.21713    0.91694   1.00
H1       0.25771    0.31329    1.02888   1.00
H1       0.27496    0.30867    0.97112   1.00
C5       0.23431    0.17989    1.02065   1.00
C5       0.22854    0.18143    0.97935   1.00
H1       0.26020    0.31204    1.09886   1.00
H1       0.27218    0.30883    0.90114   1.00
H1       0.23764    0.19046    1.10053   1.00
H1       0.23094    0.19225    0.89947   1.00
C6       0.23346    0.14088    1.04234   1.00
C6       0.20978    0.14723    0.95766   1.00
H2       0.24507    0.11718    1.02358   1.00
H2       0.25380    0.14052    1.06737   1.00
C6       0.19222    0.13152    1.05724   1.00
H2       0.18788    0.13250    0.97642   1.00
H2       0.19198    0.15708    0.93263   1.00
C6       0.24081    0.11850    0.94276   1.00
H2       0.17095    0.13070    1.03274   1.00
C6       0.19175    0.09229    1.07832   1.00
H2       0.18226    0.15480    1.07760   1.00
C6       0.22161    0.08429    0.92168   1.00
H2       0.26108    0.13369    0.92240   1.00
H2       0.25883    0.10716    0.96726   1.00
H2       0.20079    0.06850    1.05822   1.00
H2       0.21180    0.09281    1.10380   1.00
H2       0.16182    0.08589    1.08898   1.00
H2       0.20189    0.06821    0.94178   1.00
H2       0.20451    0.09476    0.89620   1.00
H2       0.24434    0.06378    0.91102   1.00
C4       0.25020    0.52067    0.74925   1.00
C4       0.24980    0.47933    0.75075   1.00
C3       0.28511    0.54244    0.75480   1.00
C3       0.28281    0.45756    0.76339   1.00
C4       0.21500    0.54150    0.74234   1.00
C4       0.21586    0.45850    0.73914   1.00
C2       0.25060    0.60352    0.75018   1.00
C2       0.25061    0.39648    0.75015   1.00
C3       0.28504    0.58310    0.75559   1.00
C3       0.28314    0.41690    0.76268   1.00
C3       0.21604    0.58306    0.74309   1.00
C3       0.21713    0.41694    0.73901   1.00
H1       0.31329    0.52888    0.75771   1.00
H1       0.30867    0.47112    0.77496   1.00
C5       0.17989    0.52065    0.73431   1.00
C5       0.18143    0.47935    0.72854   1.00
H1       0.31204    0.59886    0.76020   1.00
H1       0.30883    0.40114    0.77218   1.00
H1       0.19046    0.60053    0.73764   1.00
H1       0.19225    0.39947    0.73094   1.00
C6       0.14088    0.54234    0.73346   1.00
C6       0.14723    0.45766    0.70978   1.00
H2       0.11718    0.52358    0.74507   1.00
H2       0.14052    0.56737    0.75380   1.00
C6       0.13152    0.55724    0.69222   1.00
H2       0.13250    0.47642    0.68788   1.00
H2       0.15708    0.43263    0.69198   1.00
C6       0.11850    0.44276    0.74081   1.00
H2       0.13070    0.53274    0.67095   1.00
C6       0.09229    0.57832    0.69175   1.00
H2       0.15480    0.57760    0.68226   1.00
C6       0.08429    0.42168    0.72161   1.00
H2       0.13369    0.42240    0.76108   1.00
H2       0.10716    0.46726    0.75883   1.00
H2       0.06850    0.55822    0.70079   1.00
H2       0.09281    0.60380    0.71180   1.00
H2       0.08589    0.58898    0.66182   1.00
H2       0.06821    0.44178    0.70189   1.00
H2       0.09476    0.39620    0.70451   1.00
H2       0.06378    0.41102    0.74434   1.00
C4       -0.02067   0.24925    0.74980   1.00
C4       0.02067    0.25075    0.75020   1.00
C3       -0.04244   0.25480    0.71489   1.00
C3       0.04244    0.26339    0.71719   1.00
C4       -0.04150   0.24234    0.78500   1.00
C4       0.04150    0.23914    0.78414   1.00
C2       -0.10352   0.25018    0.74940   1.00
C2       0.10352    0.25015    0.74939   1.00
C3       -0.08310   0.25559    0.71496   1.00
C3       0.08310    0.26268    0.71686   1.00
C3       -0.08306   0.24309    0.78396   1.00
C3       0.08306    0.23901    0.78287   1.00
H1       -0.02888   0.25771    0.68671   1.00
H1       0.02888    0.27496    0.69133   1.00
C5       -0.02065   0.23431    0.82011   1.00
C5       0.02065    0.22854    0.81857   1.00
H1       -0.09886   0.26020    0.68796   1.00
H1       0.09886    0.27218    0.69117   1.00
H1       -0.10053   0.23764    0.80954   1.00
H1       0.10053    0.23094    0.80775   1.00
C6       -0.04234   0.23346    0.85912   1.00
C6       0.04234    0.20978    0.85277   1.00
H2       -0.02358   0.24507    0.88282   1.00
H2       -0.06737   0.25380    0.85948   1.00
C6       -0.05724   0.19222    0.86848   1.00
H2       0.02358    0.18788    0.86750   1.00
H2       0.06737    0.19198    0.84292   1.00
C6       0.05724    0.24081    0.88150   1.00
H2       -0.03274   0.17095    0.86930   1.00
C6       -0.07832   0.19175    0.90771   1.00
H2       -0.07760   0.18226    0.84520   1.00
C6       0.07832    0.22161    0.91571   1.00
H2       0.07760    0.26108    0.86631   1.00
H2       0.03274    0.25883    0.89284   1.00
H2       -0.05822   0.20079    0.93150   1.00
H2       -0.10380   0.21180    0.90719   1.00
H2       -0.08898   0.16182    0.91411   1.00
H2       0.05822    0.20189    0.93179   1.00
H2       0.10380    0.20451    0.90524   1.00
H2       0.08898    0.24434    0.93622   1.00
C4       0.52067    0.24925    0.75020   1.00
C4       0.47933    0.25075    0.74980   1.00
C3       0.54244    0.25480    0.78511   1.00
C3       0.45756    0.26339    0.78281   1.00
C4       0.54150    0.24234    0.71500   1.00
C4       0.45850    0.23914    0.71586   1.00
C2       0.60352    0.25018    0.75060   1.00
C2       0.39648    0.25015    0.75061   1.00
C3       0.58310    0.25559    0.78504   1.00
C3       0.41690    0.26268    0.78314   1.00
C3       0.58306    0.24309    0.71604   1.00
C3       0.41694    0.23901    0.71713   1.00
H1       0.52888    0.25771    0.81329   1.00
H1       0.47112    0.27496    0.80867   1.00
C5       0.52065    0.23431    0.67989   1.00
C5       0.47935    0.22854    0.68143   1.00
H1       0.59886    0.26020    0.81204   1.00
H1       0.40114    0.27218    0.80883   1.00
H1       0.60053    0.23764    0.69046   1.00
H1       0.39947    0.23094    0.69225   1.00
C6       0.54234    0.23346    0.64088   1.00
C6       0.45766    0.20978    0.64723   1.00
H2       0.52358    0.24507    0.61718   1.00
H2       0.56737    0.25380    0.64052   1.00
C6       0.55724    0.19222    0.63152   1.00
H2       0.47642    0.18788    0.63250   1.00
H2       0.43263    0.19198    0.65708   1.00
C6       0.44276    0.24081    0.61850   1.00
H2       0.53274    0.17095    0.63070   1.00
C6       0.57832    0.19175    0.59229   1.00
H2       0.57760    0.18226    0.65480   1.00
C6       0.42168    0.22161    0.58429   1.00
H2       0.42240    0.26108    0.63369   1.00
H2       0.46726    0.25883    0.60716   1.00
H2       0.55822    0.20079    0.56850   1.00
H2       0.60380    0.21180    0.59281   1.00
H2       0.58898    0.16182    0.58589   1.00
H2       0.44178    0.20189    0.56821   1.00
H2       0.39620    0.20451    0.59476   1.00
H2       0.41102    0.24434    0.56378   1.00
C4       0.24980    -0.02067   0.74925   1.00
C4       0.25020    0.02067    0.75075   1.00
C3       0.21489    -0.04244   0.75480   1.00
C3       0.21719    0.04244    0.76339   1.00
C4       0.28500    -0.04150   0.74234   1.00
C4       0.28414    0.04150    0.73914   1.00
C2       0.24940    -0.10352   0.75018   1.00
C2       0.24939    0.10352    0.75015   1.00
C3       0.21496    -0.08310   0.75559   1.00
C3       0.21686    0.08310    0.76268   1.00
C3       0.28396    -0.08306   0.74309   1.00
C3       0.28287    0.08306    0.73901   1.00
H1       0.18671    -0.02888   0.75771   1.00
H1       0.19133    0.02888    0.77496   1.00
C5       0.32011    -0.02065   0.73431   1.00
C5       0.31857    0.02065    0.72854   1.00
H1       0.18796    -0.09886   0.76020   1.00
H1       0.19117    0.09886    0.77218   1.00
H1       0.30954    -0.10053   0.73764   1.00
H1       0.30775    0.10053    0.73094   1.00
C6       0.35912    -0.04234   0.73346   1.00
C6       0.35277    0.04234    0.70978   1.00
H2       0.38282    -0.02358   0.74507   1.00
H2       0.35948    -0.06737   0.75380   1.00
C6       0.36848    -0.05724   0.69222   1.00
H2       0.36750    0.02358    0.68788   1.00
H2       0.34292    0.06737    0.69198   1.00
C6       0.38150    0.05724    0.74081   1.00
H2       0.36930    -0.03274   0.67095   1.00
C6       0.40771    -0.07832   0.69175   1.00
H2       0.34520    -0.07760   0.68226   1.00
C6       0.41571    0.07832    0.72161   1.00
H2       0.36631    0.07760    0.76108   1.00
H2       0.39284    0.03274    0.75883   1.00
H2       0.43150    -0.05822   0.70079   1.00
H2       0.40719    -0.10380   0.71180   1.00
H2       0.41411    -0.08898   0.66182   1.00
H2       0.43179    0.05822    0.70189   1.00
H2       0.40524    0.10380    0.70451   1.00
H2       0.43622    0.08898    0.74434   1.00
C4       0.24925    0.24980    0.47933   1.00
C4       0.25075    0.25020    0.52067   1.00
C3       0.25480    0.21489    0.45756   1.00
C3       0.26339    0.21719    0.54244   1.00
C4       0.24234    0.28500    0.45850   1.00
C4       0.23914    0.28414    0.54150   1.00
C2       0.25018    0.24940    0.39648   1.00
C2       0.25015    0.24939    0.60352   1.00
C3       0.25559    0.21496    0.41690   1.00
C3       0.26268    0.21686    0.58310   1.00
C3       0.24309    0.28396    0.41694   1.00
C3       0.23901    0.28287    0.58306   1.00
H1       0.25771    0.18671    0.47112   1.00
H1       0.27496    0.19133    0.52888   1.00
C5       0.23431    0.32011    0.47935   1.00
C5       0.22854    0.31857    0.52065   1.00
H1       0.26020    0.18796    0.40114   1.00
H1       0.27218    0.19117    0.59886   1.00
H1       0.23764    0.30954    0.39947   1.00
H1       0.23094    0.30775    0.60053   1.00
C6       0.23346    0.35912    0.45766   1.00
C6       0.20978    0.35277    0.54234   1.00
H2       0.24507    0.38282    0.47642   1.00
H2       0.25380    0.35948    0.43263   1.00
C6       0.19222    0.36848    0.44276   1.00
H2       0.18788    0.36750    0.52358   1.00
H2       0.19198    0.34292    0.56737   1.00
C6       0.24081    0.38150    0.55724   1.00
H2       0.17095    0.36930    0.46726   1.00
C6       0.19175    0.40771    0.42168   1.00
H2       0.18226    0.34520    0.42240   1.00
C6       0.22161    0.41571    0.57832   1.00
H2       0.26108    0.36631    0.57760   1.00
H2       0.25883    0.39284    0.53274   1.00
H2       0.20079    0.43150    0.44178   1.00
H2       0.21180    0.40719    0.39620   1.00
H2       0.16182    0.41411    0.41102   1.00
H2       0.20189    0.43179    0.55822   1.00
H2       0.20451    0.40524    0.60380   1.00
H2       0.24434    0.43622    0.58898   1.00
C4       0.24925    0.75020    0.52067   1.00
C4       0.25075    0.74980    0.47933   1.00
C3       0.25480    0.78511    0.54244   1.00
C3       0.26339    0.78281    0.45756   1.00
C4       0.24234    0.71500    0.54150   1.00
C4       0.23914    0.71586    0.45850   1.00
C2       0.25018    0.75060    0.60352   1.00
C2       0.25015    0.75061    0.39648   1.00
C3       0.25559    0.78504    0.58310   1.00
C3       0.26268    0.78314    0.41690   1.00
C3       0.24309    0.71604    0.58306   1.00
C3       0.23901    0.71713    0.41694   1.00
H1       0.25771    0.81329    0.52888   1.00
H1       0.27496    0.80867    0.47112   1.00
C5       0.23431    0.67989    0.52065   1.00
C5       0.22854    0.68143    0.47935   1.00
H1       0.26020    0.81204    0.59886   1.00
H1       0.27218    0.80883    0.40114   1.00
H1       0.23764    0.69046    0.60053   1.00
H1       0.23094    0.69225    0.39947   1.00
C6       0.23346    0.64088    0.54234   1.00
C6       0.20978    0.64723    0.45766   1.00
H2       0.24507    0.61718    0.52358   1.00
H2       0.25380    0.64052    0.56737   1.00
C6       0.19222    0.63152    0.55724   1.00
H2       0.18788    0.63250    0.47642   1.00
H2       0.19198    0.65708    0.43263   1.00
C6       0.24081    0.61850    0.44276   1.00
H2       0.17095    0.63070    0.53274   1.00
C6       0.19175    0.59229    0.57832   1.00
H2       0.18226    0.65480    0.57760   1.00
C6       0.22161    0.58429    0.42168   1.00
H2       0.26108    0.63369    0.42240   1.00
H2       0.25883    0.60716    0.46726   1.00
H2       0.20079    0.56850    0.55822   1.00
H2       0.21180    0.59281    0.60380   1.00
H2       0.16182    0.58589    0.58898   1.00
H2       0.20189    0.56821    0.44178   1.00
H2       0.20451    0.59476    0.39620   1.00
H2       0.24434    0.56378    0.41102   1.00
C4       0.25020    1.02067    0.24925   1.00
C4       0.24980    0.97933    0.25075   1.00
C3       0.28511    1.04244    0.25480   1.00
C3       0.28281    0.95756    0.26339   1.00
C4       0.21500    1.04150    0.24234   1.00
C4       0.21586    0.95850    0.23914   1.00
C2       0.25060    1.10352    0.25018   1.00
C2       0.25061    0.89648    0.25015   1.00
C3       0.28504    1.08310    0.25559   1.00
C3       0.28314    0.91690    0.26268   1.00
C3       0.21604    1.08306    0.24309   1.00
C3       0.21713    0.91694    0.23901   1.00
H1       0.31329    1.02888    0.25771   1.00
H1       0.30867    0.97112    0.27496   1.00
C5       0.17989    1.02065    0.23431   1.00
C5       0.18143    0.97935    0.22854   1.00
H1       0.31204    1.09886    0.26020   1.00
H1       0.30883    0.90114    0.27218   1.00
H1       0.19046    1.10053    0.23764   1.00
H1       0.19225    0.89947    0.23094   1.00
C6       0.14088    1.04234    0.23346   1.00
C6       0.14723    0.95766    0.20978   1.00
H2       0.11718    1.02358    0.24507   1.00
H2       0.14052    1.06737    0.25380   1.00
C6       0.13152    1.05724    0.19222   1.00
H2       0.13250    0.97642    0.18788   1.00
H2       0.15708    0.93263    0.19198   1.00
C6       0.11850    0.94276    0.24081   1.00
H2       0.13070    1.03274    0.17095   1.00
C6       0.09229    1.07832    0.19175   1.00
H2       0.15480    1.07760    0.18226   1.00
C6       0.08429    0.92168    0.22161   1.00
H2       0.13369    0.92240    0.26108   1.00
H2       0.10716    0.96726    0.25883   1.00
H2       0.06850    1.05822    0.20079   1.00
H2       0.09281    1.10380    0.21180   1.00
H2       0.08589    1.08898    0.16182   1.00
H2       0.06821    0.94178    0.20189   1.00
H2       0.09476    0.89620    0.20451   1.00
H2       0.06378    0.91102    0.24434   1.00
C4       -0.02067   0.74925    0.24980   1.00
C4       0.02067    0.75075    0.25020   1.00
C3       -0.04244   0.75480    0.21489   1.00
C3       0.04244    0.76339    0.21719   1.00
C4       -0.04150   0.74234    0.28500   1.00
C4       0.04150    0.73914    0.28414   1.00
C2       -0.10352   0.75018    0.24940   1.00
C2       0.10352    0.75015    0.24939   1.00
C3       -0.08310   0.75559    0.21496   1.00
C3       0.08310    0.76268    0.21686   1.00
C3       -0.08306   0.74309    0.28396   1.00
C3       0.08306    0.73901    0.28287   1.00
H1       -0.02888   0.75771    0.18671   1.00
H1       0.02888    0.77496    0.19133   1.00
C5       -0.02065   0.73431    0.32011   1.00
C5       0.02065    0.72854    0.31857   1.00
H1       -0.09886   0.76020    0.18796   1.00
H1       0.09886    0.77218    0.19117   1.00
H1       -0.10053   0.73764    0.30954   1.00
H1       0.10053    0.73094    0.30775   1.00
C6       -0.04234   0.73346    0.35912   1.00
C6       0.04234    0.70978    0.35277   1.00
H2       -0.02358   0.74507    0.38282   1.00
H2       -0.06737   0.75380    0.35948   1.00
C6       -0.05724   0.69222    0.36848   1.00
H2       0.02358    0.68788    0.36750   1.00
H2       0.06737    0.69198    0.34292   1.00
C6       0.05724    0.74081    0.38150   1.00
H2       -0.03274   0.67095    0.36930   1.00
C6       -0.07832   0.69175    0.40771   1.00
H2       -0.07760   0.68226    0.34520   1.00
C6       0.07832    0.72161    0.41571   1.00
H2       0.07760    0.76108    0.36631   1.00
H2       0.03274    0.75883    0.39284   1.00
H2       -0.05822   0.70079    0.43150   1.00
H2       -0.10380   0.71180    0.40719   1.00
H2       -0.08898   0.66182    0.41411   1.00
H2       0.05822    0.70189    0.43179   1.00
H2       0.10380    0.70451    0.40524   1.00
H2       0.08898    0.74434    0.43622   1.00
C4       0.52067    0.74925    0.25020   1.00
C4       0.47933    0.75075    0.24980   1.00
C3       0.54244    0.75480    0.28511   1.00
C3       0.45756    0.76339    0.28281   1.00
C4       0.54150    0.74234    0.21500   1.00
C4       0.45850    0.73914    0.21586   1.00
C2       0.60352    0.75018    0.25060   1.00
C2       0.39648    0.75015    0.25061   1.00
C3       0.58310    0.75559    0.28504   1.00
C3       0.41690    0.76268    0.28314   1.00
C3       0.58306    0.74309    0.21604   1.00
C3       0.41694    0.73901    0.21713   1.00
H1       0.52888    0.75771    0.31329   1.00
H1       0.47112    0.77496    0.30867   1.00
C5       0.52065    0.73431    0.17989   1.00
C5       0.47935    0.72854    0.18143   1.00
H1       0.59886    0.76020    0.31204   1.00
H1       0.40114    0.77218    0.30883   1.00
H1       0.60053    0.73764    0.19046   1.00
H1       0.39947    0.73094    0.19225   1.00
C6       0.54234    0.73346    0.14088   1.00
C6       0.45766    0.70978    0.14723   1.00
H2       0.52358    0.74507    0.11718   1.00
H2       0.56737    0.75380    0.14052   1.00
C6       0.55724    0.69222    0.13152   1.00
H2       0.47642    0.68788    0.13250   1.00
H2       0.43263    0.69198    0.15708   1.00
C6       0.44276    0.74081    0.11850   1.00
H2       0.53274    0.67095    0.13070   1.00
C6       0.57832    0.69175    0.09229   1.00
H2       0.57760    0.68226    0.15480   1.00
C6       0.42168    0.72161    0.08429   1.00
H2       0.42240    0.76108    0.13369   1.00
H2       0.46726    0.75883    0.10716   1.00
H2       0.55822    0.70079    0.06850   1.00
H2       0.60380    0.71180    0.09281   1.00
H2       0.58898    0.66182    0.08589   1.00
H2       0.44178    0.70189    0.06821   1.00
H2       0.39620    0.70451    0.09476   1.00
H2       0.41102    0.74434    0.06378   1.00
C4       0.24980    0.47933    0.24925   1.00
C4       0.25020    0.52067    0.25075   1.00
C3       0.21489    0.45756    0.25480   1.00
C3       0.21719    0.54244    0.26339   1.00
C4       0.28500    0.45850    0.24234   1.00
C4       0.28414    0.54150    0.23914   1.00
C2       0.24940    0.39648    0.25018   1.00
C2       0.24939    0.60352    0.25015   1.00
C3       0.21496    0.41690    0.25559   1.00
C3       0.21686    0.58310    0.26268   1.00
C3       0.28396    0.41694    0.24309   1.00
C3       0.28287    0.58306    0.23901   1.00
H1       0.18671    0.47112    0.25771   1.00
H1       0.19133    0.52888    0.27496   1.00
C5       0.32011    0.47935    0.23431   1.00
C5       0.31857    0.52065    0.22854   1.00
H1       0.18796    0.40114    0.26020   1.00
H1       0.19117    0.59886    0.27218   1.00
H1       0.30954    0.39947    0.23764   1.00
H1       0.30775    0.60053    0.23094   1.00
C6       0.35912    0.45766    0.23346   1.00
C6       0.35277    0.54234    0.20978   1.00
H2       0.38282    0.47642    0.24507   1.00
H2       0.35948    0.43263    0.25380   1.00
C6       0.36848    0.44276    0.19222   1.00
H2       0.36750    0.52358    0.18788   1.00
H2       0.34292    0.56737    0.19198   1.00
C6       0.38150    0.55724    0.24081   1.00
H2       0.36930    0.46726    0.17095   1.00
C6       0.40771    0.42168    0.19175   1.00
H2       0.34520    0.42240    0.18226   1.00
C6       0.41571    0.57832    0.22161   1.00
H2       0.36631    0.57760    0.26108   1.00
H2       0.39284    0.53274    0.25883   1.00
H2       0.43150    0.44178    0.20079   1.00
H2       0.40719    0.39620    0.21180   1.00
H2       0.41411    0.41102    0.16182   1.00
H2       0.43179    0.55822    0.20189   1.00
H2       0.40524    0.60380    0.20451   1.00
H2       0.43622    0.58898    0.24434   1.00
C4       0.24925    0.74980    -0.02067   1.00
C4       0.25075    0.75020    0.02067   1.00
C3       0.25480    0.71489    -0.04244   1.00
C3       0.26339    0.71719    0.04244   1.00
C4       0.24234    0.78500    -0.04150   1.00
C4       0.23914    0.78414    0.04150   1.00
C2       0.25018    0.74940    -0.10352   1.00
C2       0.25015    0.74939    0.10352   1.00
C3       0.25559    0.71496    -0.08310   1.00
C3       0.26268    0.71686    0.08310   1.00
C3       0.24309    0.78396    -0.08306   1.00
C3       0.23901    0.78287    0.08306   1.00
H1       0.25771    0.68671    -0.02888   1.00
H1       0.27496    0.69133    0.02888   1.00
C5       0.23431    0.82011    -0.02065   1.00
C5       0.22854    0.81857    0.02065   1.00
H1       0.26020    0.68796    -0.09886   1.00
H1       0.27218    0.69117    0.09886   1.00
H1       0.23764    0.80954    -0.10053   1.00
H1       0.23094    0.80775    0.10053   1.00
C6       0.23346    0.85912    -0.04234   1.00
C6       0.20978    0.85277    0.04234   1.00
H2       0.24507    0.88282    -0.02358   1.00
H2       0.25380    0.85948    -0.06737   1.00
C6       0.19222    0.86848    -0.05724   1.00
H2       0.18788    0.86750    0.02358   1.00
H2       0.19198    0.84292    0.06737   1.00
C6       0.24081    0.88150    0.05724   1.00
H2       0.17095    0.86930    -0.03274   1.00
C6       0.19175    0.90771    -0.07832   1.00
H2       0.18226    0.84520    -0.07760   1.00
C6       0.22161    0.91571    0.07832   1.00
H2       0.26108    0.86631    0.07760   1.00
H2       0.25883    0.89284    0.03274   1.00
H2       0.20079    0.93150    -0.05822   1.00
H2       0.21180    0.90719    -0.10380   1.00
H2       0.16182    0.91411    -0.08898   1.00
H2       0.20189    0.93179    0.05822   1.00
H2       0.20451    0.90524    0.10380   1.00
H2       0.24434    0.93622    0.08898   1.00
C4       0.74925    0.25020    0.52067   1.00
C4       0.75075    0.24980    0.47933   1.00
C3       0.75480    0.28511    0.54244   1.00
C3       0.76339    0.28281    0.45756   1.00
C4       0.74234    0.21500    0.54150   1.00
C4       0.73914    0.21586    0.45850   1.00
C2       0.75018    0.25060    0.60352   1.00
C2       0.75015    0.25061    0.39648   1.00
C3       0.75559    0.28504    0.58310   1.00
C3       0.76268    0.28314    0.41690   1.00
C3       0.74309    0.21604    0.58306   1.00
C3       0.73901    0.21713    0.41694   1.00
H1       0.75771    0.31329    0.52888   1.00
H1       0.77496    0.30867    0.47112   1.00
C5       0.73431    0.17989    0.52065   1.00
C5       0.72854    0.18143    0.47935   1.00
H1       0.76020    0.31204    0.59886   1.00
H1       0.77218    0.30883    0.40114   1.00
H1       0.73764    0.19046    0.60053   1.00
H1       0.73094    0.19225    0.39947   1.00
C6       0.73346    0.14088    0.54234   1.00
C6       0.70978    0.14723    0.45766   1.00
H2       0.74507    0.11718    0.52358   1.00
H2       0.75380    0.14052    0.56737   1.00
C6       0.69222    0.13152    0.55724   1.00
H2       0.68788    0.13250    0.47642   1.00
H2       0.69198    0.15708    0.43263   1.00
C6       0.74081    0.11850    0.44276   1.00
H2       0.67095    0.13070    0.53274   1.00
C6       0.69175    0.09229    0.57832   1.00
H2       0.68226    0.15480    0.57760   1.00
C6       0.72161    0.08429    0.42168   1.00
H2       0.76108    0.13369    0.42240   1.00
H2       0.75883    0.10716    0.46726   1.00
H2       0.70079    0.06850    0.55822   1.00
H2       0.71180    0.09281    0.60380   1.00
H2       0.66182    0.08589    0.58898   1.00
H2       0.70189    0.06821    0.44178   1.00
H2       0.70451    0.09476    0.39620   1.00
H2       0.74434    0.06378    0.41102   1.00
C4       0.75020    0.52067    0.24925   1.00
C4       0.74980    0.47933    0.25075   1.00
C3       0.78511    0.54244    0.25480   1.00
C3       0.78281    0.45756    0.26339   1.00
C4       0.71500    0.54150    0.24234   1.00
C4       0.71586    0.45850    0.23914   1.00
C2       0.75060    0.60352    0.25018   1.00
C2       0.75061    0.39648    0.25015   1.00
C3       0.78504    0.58310    0.25559   1.00
C3       0.78314    0.41690    0.26268   1.00
C3       0.71604    0.58306    0.24309   1.00
C3       0.71713    0.41694    0.23901   1.00
H1       0.81329    0.52888    0.25771   1.00
H1       0.80867    0.47112    0.27496   1.00
C5       0.67989    0.52065    0.23431   1.00
C5       0.68143    0.47935    0.22854   1.00
H1       0.81204    0.59886    0.26020   1.00
H1       0.80883    0.40114    0.27218   1.00
H1       0.69046    0.60053    0.23764   1.00
H1       0.69225    0.39947    0.23094   1.00
C6       0.64088    0.54234    0.23346   1.00
C6       0.64723    0.45766    0.20978   1.00
H2       0.61718    0.52358    0.24507   1.00
H2       0.64052    0.56737    0.25380   1.00
C6       0.63152    0.55724    0.19222   1.00
H2       0.63250    0.47642    0.18788   1.00
H2       0.65708    0.43263    0.19198   1.00
C6       0.61850    0.44276    0.24081   1.00
H2       0.63070    0.53274    0.17095   1.00
C6       0.59229    0.57832    0.19175   1.00
H2       0.65480    0.57760    0.18226   1.00
C6       0.58429    0.42168    0.22161   1.00
H2       0.63369    0.42240    0.26108   1.00
H2       0.60716    0.46726    0.25883   1.00
H2       0.56850    0.55822    0.20079   1.00
H2       0.59281    0.60380    0.21180   1.00
H2       0.58589    0.58898    0.16182   1.00
H2       0.56821    0.44178    0.20189   1.00
H2       0.59476    0.39620    0.20451   1.00
H2       0.56378    0.41102    0.24434   1.00
C4       0.47933    0.24925    0.24980   1.00
C4       0.52067    0.25075    0.25020   1.00
C3       0.45756    0.25480    0.21489   1.00
C3       0.54244    0.26339    0.21719   1.00
C4       0.45850    0.24234    0.28500   1.00
C4       0.54150    0.23914    0.28414   1.00
C2       0.39648    0.25018    0.24940   1.00
C2       0.60352    0.25015    0.24939   1.00
C3       0.41690    0.25559    0.21496   1.00
C3       0.58310    0.26268    0.21686   1.00
C3       0.41694    0.24309    0.28396   1.00
C3       0.58306    0.23901    0.28287   1.00
H1       0.47112    0.25771    0.18671   1.00
H1       0.52888    0.27496    0.19133   1.00
C5       0.47935    0.23431    0.32011   1.00
C5       0.52065    0.22854    0.31857   1.00
H1       0.40114    0.26020    0.18796   1.00
H1       0.59886    0.27218    0.19117   1.00
H1       0.39947    0.23764    0.30954   1.00
H1       0.60053    0.23094    0.30775   1.00
C6       0.45766    0.23346    0.35912   1.00
C6       0.54234    0.20978    0.35277   1.00
H2       0.47642    0.24507    0.38282   1.00
H2       0.43263    0.25380    0.35948   1.00
C6       0.44276    0.19222    0.36848   1.00
H2       0.52358    0.18788    0.36750   1.00
H2       0.56737    0.19198    0.34292   1.00
C6       0.55724    0.24081    0.38150   1.00
H2       0.46726    0.17095    0.36930   1.00
C6       0.42168    0.19175    0.40771   1.00
H2       0.42240    0.18226    0.34520   1.00
C6       0.57832    0.22161    0.41571   1.00
H2       0.57760    0.26108    0.36631   1.00
H2       0.53274    0.25883    0.39284   1.00
H2       0.44178    0.20079    0.43150   1.00
H2       0.39620    0.21180    0.40719   1.00
H2       0.41102    0.16182    0.41411   1.00
H2       0.55822    0.20189    0.43179   1.00
H2       0.60380    0.20451    0.40524   1.00
H2       0.58898    0.24434    0.43622   1.00
C4       1.02067    0.24925    0.25020   1.00
C4       0.97933    0.25075    0.24980   1.00
C3       1.04244    0.25480    0.28511   1.00
C3       0.95756    0.26339    0.28281   1.00
C4       1.04150    0.24234    0.21500   1.00
C4       0.95850    0.23914    0.21586   1.00
C2       1.10352    0.25018    0.25060   1.00
C2       0.89648    0.25015    0.25061   1.00
C3       1.08310    0.25559    0.28504   1.00
C3       0.91690    0.26268    0.28314   1.00
C3       1.08306    0.24309    0.21604   1.00
C3       0.91694    0.23901    0.21713   1.00
H1       1.02888    0.25771    0.31329   1.00
H1       0.97112    0.27496    0.30867   1.00
C5       1.02065    0.23431    0.17989   1.00
C5       0.97935    0.22854    0.18143   1.00
H1       1.09886    0.26020    0.31204   1.00
H1       0.90114    0.27218    0.30883   1.00
H1       1.10053    0.23764    0.19046   1.00
H1       0.89947    0.23094    0.19225   1.00
C6       1.04234    0.23346    0.14088   1.00
C6       0.95766    0.20978    0.14723   1.00
H2       1.02358    0.24507    0.11718   1.00
H2       1.06737    0.25380    0.14052   1.00
C6       1.05724    0.19222    0.13152   1.00
H2       0.97642    0.18788    0.13250   1.00
H2       0.93263    0.19198    0.15708   1.00
C6       0.94276    0.24081    0.11850   1.00
H2       1.03274    0.17095    0.13070   1.00
C6       1.07832    0.19175    0.09229   1.00
H2       1.07760    0.18226    0.15480   1.00
C6       0.92168    0.22161    0.08429   1.00
H2       0.92240    0.26108    0.13369   1.00
H2       0.96726    0.25883    0.10716   1.00
H2       1.05822    0.20079    0.06850   1.00
H2       1.10380    0.21180    0.09281   1.00
H2       1.08898    0.16182    0.08589   1.00
H2       0.94178    0.20189    0.06821   1.00
H2       0.89620    0.20451    0.09476   1.00
H2       0.91102    0.24434    0.06378   1.00
C4       0.74980    -0.02067   0.24925   1.00
C4       0.75020    0.02067    0.25075   1.00
C3       0.71489    -0.04244   0.25480   1.00
C3       0.71719    0.04244    0.26339   1.00
C4       0.78500    -0.04150   0.24234   1.00
C4       0.78414    0.04150    0.23914   1.00
C2       0.74940    -0.10352   0.25018   1.00
C2       0.74939    0.10352    0.25015   1.00
C3       0.71496    -0.08310   0.25559   1.00
C3       0.71686    0.08310    0.26268   1.00
C3       0.78396    -0.08306   0.24309   1.00
C3       0.78287    0.08306    0.23901   1.00
H1       0.68671    -0.02888   0.25771   1.00
H1       0.69133    0.02888    0.27496   1.00
C5       0.82011    -0.02065   0.23431   1.00
C5       0.81857    0.02065    0.22854   1.00
H1       0.68796    -0.09886   0.26020   1.00
H1       0.69117    0.09886    0.27218   1.00
H1       0.80954    -0.10053   0.23764   1.00
H1       0.80775    0.10053    0.23094   1.00
C6       0.85912    -0.04234   0.23346   1.00
C6       0.85277    0.04234    0.20978   1.00
H2       0.88282    -0.02358   0.24507   1.00
H2       0.85948    -0.06737   0.25380   1.00
C6       0.86848    -0.05724   0.19222   1.00
H2       0.86750    0.02358    0.18788   1.00
H2       0.84292    0.06737    0.19198   1.00
C6       0.88150    0.05724    0.24081   1.00
H2       0.86930    -0.03274   0.17095   1.00
C6       0.90771    -0.07832   0.19175   1.00
H2       0.84520    -0.07760   0.18226   1.00
C6       0.91571    0.07832    0.22161   1.00
H2       0.86631    0.07760    0.26108   1.00
H2       0.89284    0.03274    0.25883   1.00
H2       0.93150    -0.05822   0.20079   1.00
H2       0.90719    -0.10380   0.21180   1.00
H2       0.91411    -0.08898   0.16182   1.00
H2       0.93179    0.05822    0.20189   1.00
H2       0.90524    0.10380    0.20451   1.00
H2       0.93622    0.08898    0.24434   1.00
C4       0.74925    0.24980    -0.02067   1.00
C4       0.75075    0.25020    0.02067   1.00
C3       0.75480    0.21489    -0.04244   1.00
C3       0.76339    0.21719    0.04244   1.00
C4       0.74234    0.28500    -0.04150   1.00
C4       0.73914    0.28414    0.04150   1.00
C2       0.75018    0.24940    -0.10352   1.00
C2       0.75015    0.24939    0.10352   1.00
C3       0.75559    0.21496    -0.08310   1.00
C3       0.76268    0.21686    0.08310   1.00
C3       0.74309    0.28396    -0.08306   1.00
C3       0.73901    0.28287    0.08306   1.00
H1       0.75771    0.18671    -0.02888   1.00
H1       0.77496    0.19133    0.02888   1.00
C5       0.73431    0.32011    -0.02065   1.00
C5       0.72854    0.31857    0.02065   1.00
H1       0.76020    0.18796    -0.09886   1.00
H1       0.77218    0.19117    0.09886   1.00
H1       0.73764    0.30954    -0.10053   1.00
H1       0.73094    0.30775    0.10053   1.00
C6       0.73346    0.35912    -0.04234   1.00
C6       0.70978    0.35277    0.04234   1.00
H2       0.74507    0.38282    -0.02358   1.00
H2       0.75380    0.35948    -0.06737   1.00
C6       0.69222    0.36848    -0.05724   1.00
H2       0.68788    0.36750    0.02358   1.00
H2       0.69198    0.34292    0.06737   1.00
C6       0.74081    0.38150    0.05724   1.00
H2       0.67095    0.36930    -0.03274   1.00
C6       0.69175    0.40771    -0.07832   1.00
H2       0.68226    0.34520    -0.07760   1.00
C6       0.72161    0.41571    0.07832   1.00
H2       0.76108    0.36631    0.07760   1.00
H2       0.75883    0.39284    0.03274   1.00
H2       0.70079    0.43150    -0.05822   1.00
H2       0.71180    0.40719    -0.10380   1.00
H2       0.66182    0.41411    -0.08898   1.00
H2       0.70189    0.43179    0.05822   1.00
H2       0.70451    0.40524    0.10380   1.00
H2       0.74434    0.43622    0.08898   1.00
C4       0.99925    1.00020    1.27067   1.00
C4       1.00075    0.99980    1.22933   1.00
C3       1.00480    1.03511    1.29244   1.00
C3       1.01339    1.03281    1.20756   1.00
C4       0.99234    0.96500    1.29150   1.00
C4       0.98914    0.96586    1.20850   1.00
C2       1.00018    1.00060    1.35352   1.00
C2       1.00015    1.00061    1.14648   1.00
C3       1.00559    1.03504    1.33310   1.00
C3       1.01268    1.03314    1.16690   1.00
C3       0.99309    0.96604    1.33306   1.00
C3       0.98901    0.96713    1.16694   1.00
H1       1.00771    1.06329    1.27888   1.00
H1       1.02496    1.05867    1.22112   1.00
C5       0.98431    0.92989    1.27065   1.00
C5       0.97854    0.93143    1.22935   1.00
H1       1.01020    1.06204    1.34886   1.00
H1       1.02218    1.05883    1.15114   1.00
H1       0.98764    0.94046    1.35053   1.00
H1       0.98094    0.94225    1.14947   1.00
C6       0.98346    0.89088    1.29234   1.00
C6       0.95978    0.89723    1.20766   1.00
H2       0.99507    0.86718    1.27358   1.00
H2       1.00380    0.89052    1.31737   1.00
C6       0.94222    0.88152    1.30724   1.00
H2       0.93788    0.88250    1.22642   1.00
H2       0.94198    0.90708    1.18263   1.00
C6       0.99081    0.86850    1.19276   1.00
H2       0.92095    0.88070    1.28274   1.00
C6       0.94175    0.84229    1.32832   1.00
H2       0.93226    0.90480    1.32760   1.00
C6       0.97161    0.83429    1.17168   1.00
H2       1.01108    0.88369    1.17240   1.00
H2       1.00883    0.85716    1.21726   1.00
H2       0.95079    0.81850    1.30822   1.00
H2       0.96180    0.84281    1.35380   1.00
H2       0.91182    0.83589    1.33898   1.00
H2       0.95189    0.81821    1.19178   1.00
H2       0.95451    0.84476    1.14620   1.00
H2       0.99434    0.81378    1.16102   1.00
C4       1.00020    1.27067    0.99925   1.00
C4       0.99980    1.22933    1.00075   1.00
C3       1.03511    1.29244    1.00480   1.00
C3       1.03281    1.20756    1.01339   1.00
C4       0.96500    1.29150    0.99234   1.00
C4       0.96586    1.20850    0.98914   1.00
C2       1.00060    1.35352    1.00018   1.00
C2       1.00061    1.14648    1.00015   1.00
C3       1.03504    1.33310    1.00559   1.00
C3       1.03314    1.16690    1.01268   1.00
C3       0.96604    1.33306    0.99309   1.00
C3       0.96713    1.16694    0.98901   1.00
H1       1.06329    1.27888    1.00771   1.00
H1       1.05867    1.22112    1.02496   1.00
C5       0.92989    1.27065    0.98431   1.00
C5       0.93143    1.22935    0.97854   1.00
H1       1.06204    1.34886    1.01020   1.00
H1       1.05883    1.15114    1.02218   1.00
H1       0.94046    1.35053    0.98764   1.00
H1       0.94225    1.14947    0.98094   1.00
C6       0.89088    1.29234    0.98346   1.00
C6       0.89723    1.20766    0.95978   1.00
H2       0.86718    1.27358    0.99507   1.00
H2       0.89052    1.31737    1.00380   1.00
C6       0.88152    1.30724    0.94222   1.00
H2       0.88250    1.22642    0.93788   1.00
H2       0.90708    1.18263    0.94198   1.00
C6       0.86850    1.19276    0.99081   1.00
H2       0.88070    1.28274    0.92095   1.00
C6       0.84229    1.32832    0.94175   1.00
H2       0.90480    1.32760    0.93226   1.00
C6       0.83429    1.17168    0.97161   1.00
H2       0.88369    1.17240    1.01108   1.00
H2       0.85716    1.21726    1.00883   1.00
H2       0.81850    1.30822    0.95079   1.00
H2       0.84281    1.35380    0.96180   1.00
H2       0.83589    1.33898    0.91182   1.00
H2       0.81821    1.19178    0.95189   1.00
H2       0.84476    1.14620    0.95451   1.00
H2       0.81378    1.16102    0.99434   1.00
C4       0.72933    0.99925    0.99980   1.00
C4       0.77067    1.00075    1.00020   1.00
C3       0.70756    1.00480    0.96489   1.00
C3       0.79244    1.01339    0.96719   1.00
C4       0.70850    0.99234    1.03500   1.00
C4       0.79150    0.98914    1.03414   1.00
C2       0.64648    1.00018    0.99940   1.00
C2       0.85352    1.00015    0.99939   1.00
C3       0.66690    1.00559    0.96496   1.00
C3       0.83310    1.01268    0.96686   1.00
C3       0.66694    0.99309    1.03396   1.00
C3       0.83306    0.98901    1.03287   1.00
H1       0.72112    1.00771    0.93671   1.00
H1       0.77888    1.02496    0.94133   1.00
C5       0.72935    0.98431    1.07011   1.00
C5       0.77065    0.97854    1.06857   1.00
H1       0.65114    1.01020    0.93796   1.00
H1       0.84886    1.02218    0.94117   1.00
H1       0.64947    0.98764    1.05954   1.00
H1       0.85053    0.98094    1.05775   1.00
C6       0.70766    0.98346    1.10912   1.00
C6       0.79234    0.95978    1.10277   1.00
H2       0.72642    0.99507    1.13282   1.00
H2       0.68263    1.00380    1.10948   1.00
C6       0.69276    0.94222    1.11848   1.00
H2       0.77358    0.93788    1.11750   1.00
H2       0.81737    0.94198    1.09292   1.00
C6       0.80724    0.99081    1.13150   1.00
H2       0.71726    0.92095    1.11930   1.00
C6       0.67168    0.94175    1.15771   1.00
H2       0.67240    0.93226    1.09520   1.00
C6       0.82832    0.97161    1.16571   1.00
H2       0.82760    1.01108    1.11631   1.00
H2       0.78274    1.00883    1.14284   1.00
H2       0.69178    0.95079    1.18150   1.00
H2       0.64620    0.96180    1.15719   1.00
H2       0.66102    0.91182    1.16411   1.00
H2       0.80822    0.95189    1.18179   1.00
H2       0.85380    0.95451    1.15524   1.00
H2       0.83898    0.99434    1.18622   1.00
C4       1.27067    0.99925    1.00020   1.00
C4       1.22933    1.00075    0.99980   1.00
C3       1.29244    1.00480    1.03511   1.00
C3       1.20756    1.01339    1.03281   1.00
C4       1.29150    0.99234    0.96500   1.00
C4       1.20850    0.98914    0.96586   1.00
C2       1.35352    1.00018    1.00060   1.00
C2       1.14648    1.00015    1.00061   1.00
C3       1.33310    1.00559    1.03504   1.00
C3       1.16690    1.01268    1.03314   1.00
C3       1.33306    0.99309    0.96604   1.00
C3       1.16694    0.98901    0.96713   1.00
H1       1.27888    1.00771    1.06329   1.00
H1       1.22112    1.02496    1.05867   1.00
C5       1.27065    0.98431    0.92989   1.00
C5       1.22935    0.97854    0.93143   1.00
H1       1.34886    1.01020    1.06204   1.00
H1       1.15114    1.02218    1.05883   1.00
H1       1.35053    0.98764    0.94046   1.00
H1       1.14947    0.98094    0.94225   1.00
C6       1.29234    0.98346    0.89088   1.00
C6       1.20766    0.95978    0.89723   1.00
H2       1.27358    0.99507    0.86718   1.00
H2       1.31737    1.00380    0.89052   1.00
C6       1.30724    0.94222    0.88152   1.00
H2       1.22642    0.93788    0.88250   1.00
H2       1.18263    0.94198    0.90708   1.00
C6       1.19276    0.99081    0.86850   1.00
H2       1.28274    0.92095    0.88070   1.00
C6       1.32832    0.94175    0.84229   1.00
H2       1.32760    0.93226    0.90480   1.00
C6       1.17168    0.97161    0.83429   1.00
H2       1.17240    1.01108    0.88369   1.00
H2       1.21726    1.00883    0.85716   1.00
H2       1.30822    0.95079    0.81850   1.00
H2       1.35380    0.96180    0.84281   1.00
H2       1.33898    0.91182    0.83589   1.00
H2       1.19178    0.95189    0.81821   1.00
H2       1.14620    0.95451    0.84476   1.00
H2       1.16102    0.99434    0.81378   1.00
C4       0.99980    0.72933    0.99925   1.00
C4       1.00020    0.77067    1.00075   1.00
C3       0.96489    0.70756    1.00480   1.00
C3       0.96719    0.79244    1.01339   1.00
C4       1.03500    0.70850    0.99234   1.00
C4       1.03414    0.79150    0.98914   1.00
C2       0.99940    0.64648    1.00018   1.00
C2       0.99939    0.85352    1.00015   1.00
C3       0.96496    0.66690    1.00559   1.00
C3       0.96686    0.83310    1.01268   1.00
C3       1.03396    0.66694    0.99309   1.00
C3       1.03287    0.83306    0.98901   1.00
H1       0.93671    0.72112    1.00771   1.00
H1       0.94133    0.77888    1.02496   1.00
C5       1.07011    0.72935    0.98431   1.00
C5       1.06857    0.77065    0.97854   1.00
H1       0.93796    0.65114    1.01020   1.00
H1       0.94117    0.84886    1.02218   1.00
H1       1.05954    0.64947    0.98764   1.00
H1       1.05775    0.85053    0.98094   1.00
C6       1.10912    0.70766    0.98346   1.00
C6       1.10277    0.79234    0.95978   1.00
H2       1.13282    0.72642    0.99507   1.00
H2       1.10948    0.68263    1.00380   1.00
C6       1.11848    0.69276    0.94222   1.00
H2       1.11750    0.77358    0.93788   1.00
H2       1.09292    0.81737    0.94198   1.00
C6       1.13150    0.80724    0.99081   1.00
H2       1.11930    0.71726    0.92095   1.00
C6       1.15771    0.67168    0.94175   1.00
H2       1.09520    0.67240    0.93226   1.00
C6       1.16571    0.82832    0.97161   1.00
H2       1.11631    0.82760    1.01108   1.00
H2       1.14284    0.78274    1.00883   1.00
H2       1.18150    0.69178    0.95079   1.00
H2       1.15719    0.64620    0.96180   1.00
H2       1.16411    0.66102    0.91182   1.00
H2       1.18179    0.80822    0.95189   1.00
H2       1.15524    0.85380    0.95451   1.00
H2       1.18622    0.83898    0.99434   1.00
C4       0.99925    0.99980    0.72933   1.00
C4       1.00075    1.00020    0.77067   1.00
C3       1.00480    0.96489    0.70756   1.00
C3       1.01339    0.96719    0.79244   1.00
C4       0.99234    1.03500    0.70850   1.00
C4       0.98914    1.03414    0.79150   1.00
C2       1.00018    0.99940    0.64648   1.00
C2       1.00015    0.99939    0.85352   1.00
C3       1.00559    0.96496    0.66690   1.00
C3       1.01268    0.96686    0.83310   1.00
C3       0.99309    1.03396    0.66694   1.00
C3       0.98901    1.03287    0.83306   1.00
H1       1.00771    0.93671    0.72112   1.00
H1       1.02496    0.94133    0.77888   1.00
C5       0.98431    1.07011    0.72935   1.00
C5       0.97854    1.06857    0.77065   1.00
H1       1.01020    0.93796    0.65114   1.00
H1       1.02218    0.94117    0.84886   1.00
H1       0.98764    1.05954    0.64947   1.00
H1       0.98094    1.05775    0.85053   1.00
C6       0.98346    1.10912    0.70766   1.00
C6       0.95978    1.10277    0.79234   1.00
H2       0.99507    1.13282    0.72642   1.00
H2       1.00380    1.10948    0.68263   1.00
C6       0.94222    1.11848    0.69276   1.00
H2       0.93788    1.11750    0.77358   1.00
H2       0.94198    1.09292    0.81737   1.00
C6       0.99081    1.13150    0.80724   1.00
H2       0.92095    1.11930    0.71726   1.00
C6       0.94175    1.15771    0.67168   1.00
H2       0.93226    1.09520    0.67240   1.00
C6       0.97161    1.16571    0.82832   1.00
H2       1.01108    1.11631    0.82760   1.00
H2       1.00883    1.14284    0.78274   1.00
H2       0.95079    1.18150    0.69178   1.00
H2       0.96180    1.15719    0.64620   1.00
H2       0.91182    1.16411    0.66102   1.00
H2       0.95189    1.18179    0.80822   1.00
H2       0.95451    1.15524    0.85380   1.00
H2       0.99434    1.18622    0.83898   1.00
C4       0.49925    0.50020    1.27067   1.00
C4       0.50075    0.49980    1.22933   1.00
C3       0.50480    0.53511    1.29244   1.00
C3       0.51339    0.53281    1.20756   1.00
C4       0.49234    0.46500    1.29150   1.00
C4       0.48914    0.46586    1.20850   1.00
C2       0.50018    0.50060    1.35352   1.00
C2       0.50015    0.50061    1.14648   1.00
C3       0.50559    0.53504    1.33310   1.00
C3       0.51268    0.53314    1.16690   1.00
C3       0.49309    0.46604    1.33306   1.00
C3       0.48901    0.46713    1.16694   1.00
H1       0.50771    0.56329    1.27888   1.00
H1       0.52496    0.55867    1.22112   1.00
C5       0.48431    0.42989    1.27065   1.00
C5       0.47854    0.43143    1.22935   1.00
H1       0.51020    0.56204    1.34886   1.00
H1       0.52218    0.55883    1.15114   1.00
H1       0.48764    0.44046    1.35053   1.00
H1       0.48094    0.44225    1.14947   1.00
C6       0.48346    0.39088    1.29234   1.00
C6       0.45978    0.39723    1.20766   1.00
H2       0.49507    0.36718    1.27358   1.00
H2       0.50380    0.39052    1.31737   1.00
C6       0.44222    0.38152    1.30724   1.00
H2       0.43788    0.38250    1.22642   1.00
H2       0.44198    0.40708    1.18263   1.00
C6       0.49081    0.36850    1.19276   1.00
H2       0.42095    0.38070    1.28274   1.00
C6       0.44175    0.34229    1.32832   1.00
H2       0.43226    0.40480    1.32760   1.00
C6       0.47161    0.33429    1.17168   1.00
H2       0.51108    0.38369    1.17240   1.00
H2       0.50883    0.35716    1.21726   1.00
H2       0.45079    0.31850    1.30822   1.00
H2       0.46180    0.34281    1.35380   1.00
H2       0.41182    0.33589    1.33898   1.00
H2       0.45189    0.31821    1.19178   1.00
H2       0.45451    0.34476    1.14620   1.00
H2       0.49434    0.31378    1.16102   1.00
C4       0.50020    0.77067    0.99925   1.00
C4       0.49980    0.72933    1.00075   1.00
C3       0.53511    0.79244    1.00480   1.00
C3       0.53281    0.70756    1.01339   1.00
C4       0.46500    0.79150    0.99234   1.00
C4       0.46586    0.70850    0.98914   1.00
C2       0.50060    0.85352    1.00018   1.00
C2       0.50061    0.64648    1.00015   1.00
C3       0.53504    0.83310    1.00559   1.00
C3       0.53314    0.66690    1.01268   1.00
C3       0.46604    0.83306    0.99309   1.00
C3       0.46713    0.66694    0.98901   1.00
H1       0.56329    0.77888    1.00771   1.00
H1       0.55867    0.72112    1.02496   1.00
C5       0.42989    0.77065    0.98431   1.00
C5       0.43143    0.72935    0.97854   1.00
H1       0.56204    0.84886    1.01020   1.00
H1       0.55883    0.65114    1.02218   1.00
H1       0.44046    0.85053    0.98764   1.00
H1       0.44225    0.64947    0.98094   1.00
C6       0.39088    0.79234    0.98346   1.00
C6       0.39723    0.70766    0.95978   1.00
H2       0.36718    0.77358    0.99507   1.00
H2       0.39052    0.81737    1.00380   1.00
C6       0.38152    0.80724    0.94222   1.00
H2       0.38250    0.72642    0.93788   1.00
H2       0.40708    0.68263    0.94198   1.00
C6       0.36850    0.69276    0.99081   1.00
H2       0.38070    0.78274    0.92095   1.00
C6       0.34229    0.82832    0.94175   1.00
H2       0.40480    0.82760    0.93226   1.00
C6       0.33429    0.67168    0.97161   1.00
H2       0.38369    0.67240    1.01108   1.00
H2       0.35716    0.71726    1.00883   1.00
H2       0.31850    0.80822    0.95079   1.00
H2       0.34281    0.85380    0.96180   1.00
H2       0.33589    0.83898    0.91182   1.00
H2       0.31821    0.69178    0.95189   1.00
H2       0.34476    0.64620    0.95451   1.00
H2       0.31378    0.66102    0.99434   1.00
C4       0.22933    0.49925    0.99980   1.00
C4       0.27067    0.50075    1.00020   1.00
C3       0.20756    0.50480    0.96489   1.00
C3       0.29244    0.51339    0.96719   1.00
C4       0.20850    0.49234    1.03500   1.00
C4       0.29150    0.48914    1.03414   1.00
C2       0.14648    0.50018    0.99940   1.00
C2       0.35352    0.50015    0.99939   1.00
C3       0.16690    0.50559    0.96496   1.00
C3       0.33310    0.51268    0.96686   1.00
C3       0.16694    0.49309    1.03396   1.00
C3       0.33306    0.48901    1.03287   1.00
H1       0.22112    0.50771    0.93671   1.00
H1       0.27888    0.52496    0.94133   1.00
C5       0.22935    0.48431    1.07011   1.00
C5       0.27065    0.47854    1.06857   1.00
H1       0.15114    0.51020    0.93796   1.00
H1       0.34886    0.52218    0.94117   1.00
H1       0.14947    0.48764    1.05954   1.00
H1       0.35053    0.48094    1.05775   1.00
C6       0.20766    0.48346    1.10912   1.00
C6       0.29234    0.45978    1.10277   1.00
H2       0.22642    0.49507    1.13282   1.00
H2       0.18263    0.50380    1.10948   1.00
C6       0.19276    0.44222    1.11848   1.00
H2       0.27358    0.43788    1.11750   1.00
H2       0.31737    0.44198    1.09292   1.00
C6       0.30724    0.49081    1.13150   1.00
H2       0.21726    0.42095    1.11930   1.00
C6       0.17168    0.44175    1.15771   1.00
H2       0.17240    0.43226    1.09520   1.00
C6       0.32832    0.47161    1.16571   1.00
H2       0.32760    0.51108    1.11631   1.00
H2       0.28274    0.50883    1.14284   1.00
H2       0.19178    0.45079    1.18150   1.00
H2       0.14620    0.46180    1.15719   1.00
H2       0.16102    0.41182    1.16411   1.00
H2       0.30822    0.45189    1.18179   1.00
H2       0.35380    0.45451    1.15524   1.00
H2       0.33898    0.49434    1.18622   1.00
C4       0.77067    0.49925    1.00020   1.00
C4       0.72933    0.50075    0.99980   1.00
C3       0.79244    0.50480    1.03511   1.00
C3       0.70756    0.51339    1.03281   1.00
C4       0.79150    0.49234    0.96500   1.00
C4       0.70850    0.48914    0.96586   1.00
C2       0.85352    0.50018    1.00060   1.00
C2       0.64648    0.50015    1.00061   1.00
C3       0.83310    0.50559    1.03504   1.00
C3       0.66690    0.51268    1.03314   1.00
C3       0.83306    0.49309    0.96604   1.00
C3       0.66694    0.48901    0.96713   1.00
H1       0.77888    0.50771    1.06329   1.00
H1       0.72112    0.52496    1.05867   1.00
C5       0.77065    0.48431    0.92989   1.00
C5       0.72935    0.47854    0.93143   1.00
H1       0.84886    0.51020    1.06204   1.00
H1       0.65114    0.52218    1.05883   1.00
H1       0.85053    0.48764    0.94046   1.00
H1       0.64947    0.48094    0.94225   1.00
C6       0.79234    0.48346    0.89088   1.00
C6       0.70766    0.45978    0.89723   1.00
H2       0.77358    0.49507    0.86718   1.00
H2       0.81737    0.50380    0.89052   1.00
C6       0.80724    0.44222    0.88152   1.00
H2       0.72642    0.43788    0.88250   1.00
H2       0.68263    0.44198    0.90708   1.00
C6       0.69276    0.49081    0.86850   1.00
H2       0.78274    0.42095    0.88070   1.00
C6       0.82832    0.44175    0.84229   1.00
H2       0.82760    0.43226    0.90480   1.00
C6       0.67168    0.47161    0.83429   1.00
H2       0.67240    0.51108    0.88369   1.00
H2       0.71726    0.50883    0.85716   1.00
H2       0.80822    0.45079    0.81850   1.00
H2       0.85380    0.46180    0.84281   1.00
H2       0.83898    0.41182    0.83589   1.00
H2       0.69178    0.45189    0.81821   1.00
H2       0.64620    0.45451    0.84476   1.00
H2       0.66102    0.49434    0.81378   1.00
C4       0.49980    0.22933    0.99925   1.00
C4       0.50020    0.27067    1.00075   1.00
C3       0.46489    0.20756    1.00480   1.00
C3       0.46719    0.29244    1.01339   1.00
C4       0.53500    0.20850    0.99234   1.00
C4       0.53414    0.29150    0.98914   1.00
C2       0.49940    0.14648    1.00018   1.00
C2       0.49939    0.35352    1.00015   1.00
C3       0.46496    0.16690    1.00559   1.00
C3       0.46686    0.33310    1.01268   1.00
C3       0.53396    0.16694    0.99309   1.00
C3       0.53287    0.33306    0.98901   1.00
H1       0.43671    0.22112    1.00771   1.00
H1       0.44133    0.27888    1.02496   1.00
C5       0.57011    0.22935    0.98431   1.00
C5       0.56857    0.27065    0.97854   1.00
H1       0.43796    0.15114    1.01020   1.00
H1       0.44117    0.34886    1.02218   1.00
H1       0.55954    0.14947    0.98764   1.00
H1       0.55775    0.35053    0.98094   1.00
C6       0.60912    0.20766    0.98346   1.00
C6       0.60277    0.29234    0.95978   1.00
H2       0.63282    0.22642    0.99507   1.00
H2       0.60948    0.18263    1.00380   1.00
C6       0.61848    0.19276    0.94222   1.00
H2       0.61750    0.27358    0.93788   1.00
H2       0.59292    0.31737    0.94198   1.00
C6       0.63150    0.30724    0.99081   1.00
H2       0.61930    0.21726    0.92095   1.00
C6       0.65771    0.17168    0.94175   1.00
H2       0.59520    0.17240    0.93226   1.00
C6       0.66571    0.32832    0.97161   1.00
H2       0.61631    0.32760    1.01108   1.00
H2       0.64284    0.28274    1.00883   1.00
H2       0.68150    0.19178    0.95079   1.00
H2       0.65719    0.14620    0.96180   1.00
H2       0.66411    0.16102    0.91182   1.00
H2       0.68179    0.30822    0.95189   1.00
H2       0.65524    0.35380    0.95451   1.00
H2       0.68622    0.33898    0.99434   1.00
C4       0.49925    0.49980    0.72933   1.00
C4       0.50075    0.50020    0.77067   1.00
C3       0.50480    0.46489    0.70756   1.00
C3       0.51339    0.46719    0.79244   1.00
C4       0.49234    0.53500    0.70850   1.00
C4       0.48914    0.53414    0.79150   1.00
C2       0.50018    0.49940    0.64648   1.00
C2       0.50015    0.49939    0.85352   1.00
C3       0.50559    0.46496    0.66690   1.00
C3       0.51268    0.46686    0.83310   1.00
C3       0.49309    0.53396    0.66694   1.00
C3       0.48901    0.53287    0.83306   1.00
H1       0.50771    0.43671    0.72112   1.00
H1       0.52496    0.44133    0.77888   1.00
C5       0.48431    0.57011    0.72935   1.00
C5       0.47854    0.56857    0.77065   1.00
H1       0.51020    0.43796    0.65114   1.00
H1       0.52218    0.44117    0.84886   1.00
H1       0.48764    0.55954    0.64947   1.00
H1       0.48094    0.55775    0.85053   1.00
C6       0.48346    0.60912    0.70766   1.00
C6       0.45978    0.60277    0.79234   1.00
H2       0.49507    0.63282    0.72642   1.00
H2       0.50380    0.60948    0.68263   1.00
C6       0.44222    0.61848    0.69276   1.00
H2       0.43788    0.61750    0.77358   1.00
H2       0.44198    0.59292    0.81737   1.00
C6       0.49081    0.63150    0.80724   1.00
H2       0.42095    0.61930    0.71726   1.00
C6       0.44175    0.65771    0.67168   1.00
H2       0.43226    0.59520    0.67240   1.00
C6       0.47161    0.66571    0.82832   1.00
H2       0.51108    0.61631    0.82760   1.00
H2       0.50883    0.64284    0.78274   1.00
H2       0.45079    0.68150    0.69178   1.00
H2       0.46180    0.65719    0.64620   1.00
H2       0.41182    0.66411    0.66102   1.00
H2       0.45189    0.68179    0.80822   1.00
H2       0.45451    0.65524    0.85380   1.00
H2       0.49434    0.68622    0.83898   1.00
C4       0.49925    1.00020    0.77067   1.00
C4       0.50075    0.99980    0.72933   1.00
C3       0.50480    1.03511    0.79244   1.00
C3       0.51339    1.03281    0.70756   1.00
C4       0.49234    0.96500    0.79150   1.00
C4       0.48914    0.96586    0.70850   1.00
C2       0.50018    1.00060    0.85352   1.00
C2       0.50015    1.00061    0.64648   1.00
C3       0.50559    1.03504    0.83310   1.00
C3       0.51268    1.03314    0.66690   1.00
C3       0.49309    0.96604    0.83306   1.00
C3       0.48901    0.96713    0.66694   1.00
H1       0.50771    1.06329    0.77888   1.00
H1       0.52496    1.05867    0.72112   1.00
C5       0.48431    0.92989    0.77065   1.00
C5       0.47854    0.93143    0.72935   1.00
H1       0.51020    1.06204    0.84886   1.00
H1       0.52218    1.05883    0.65114   1.00
H1       0.48764    0.94046    0.85053   1.00
H1       0.48094    0.94225    0.64947   1.00
C6       0.48346    0.89088    0.79234   1.00
C6       0.45978    0.89723    0.70766   1.00
H2       0.49507    0.86718    0.77358   1.00
H2       0.50380    0.89052    0.81737   1.00
C6       0.44222    0.88152    0.80724   1.00
H2       0.43788    0.88250    0.72642   1.00
H2       0.44198    0.90708    0.68263   1.00
C6       0.49081    0.86850    0.69276   1.00
H2       0.42095    0.88070    0.78274   1.00
C6       0.44175    0.84229    0.82832   1.00
H2       0.43226    0.90480    0.82760   1.00
C6       0.47161    0.83429    0.67168   1.00
H2       0.51108    0.88369    0.67240   1.00
H2       0.50883    0.85716    0.71726   1.00
H2       0.45079    0.81850    0.80822   1.00
H2       0.46180    0.84281    0.85380   1.00
H2       0.41182    0.83589    0.83898   1.00
H2       0.45189    0.81821    0.69178   1.00
H2       0.45451    0.84476    0.64620   1.00
H2       0.49434    0.81378    0.66102   1.00
C4       0.50020    1.27067    0.49925   1.00
C4       0.49980    1.22933    0.50075   1.00
C3       0.53511    1.29244    0.50480   1.00
C3       0.53281    1.20756    0.51339   1.00
C4       0.46500    1.29150    0.49234   1.00
C4       0.46586    1.20850    0.48914   1.00
C2       0.50060    1.35352    0.50018   1.00
C2       0.50061    1.14648    0.50015   1.00
C3       0.53504    1.33310    0.50559   1.00
C3       0.53314    1.16690    0.51268   1.00
C3       0.46604    1.33306    0.49309   1.00
C3       0.46713    1.16694    0.48901   1.00
H1       0.56329    1.27888    0.50771   1.00
H1       0.55867    1.22112    0.52496   1.00
C5       0.42989    1.27065    0.48431   1.00
C5       0.43143    1.22935    0.47854   1.00
H1       0.56204    1.34886    0.51020   1.00
H1       0.55883    1.15114    0.52218   1.00
H1       0.44046    1.35053    0.48764   1.00
H1       0.44225    1.14947    0.48094   1.00
C6       0.39088    1.29234    0.48346   1.00
C6       0.39723    1.20766    0.45978   1.00
H2       0.36718    1.27358    0.49507   1.00
H2       0.39052    1.31737    0.50380   1.00
C6       0.38152    1.30724    0.44222   1.00
H2       0.38250    1.22642    0.43788   1.00
H2       0.40708    1.18263    0.44198   1.00
C6       0.36850    1.19276    0.49081   1.00
H2       0.38070    1.28274    0.42095   1.00
C6       0.34229    1.32832    0.44175   1.00
H2       0.40480    1.32760    0.43226   1.00
C6       0.33429    1.17168    0.47161   1.00
H2       0.38369    1.17240    0.51108   1.00
H2       0.35716    1.21726    0.50883   1.00
H2       0.31850    1.30822    0.45079   1.00
H2       0.34281    1.35380    0.46180   1.00
H2       0.33589    1.33898    0.41182   1.00
H2       0.31821    1.19178    0.45189   1.00
H2       0.34476    1.14620    0.45451   1.00
H2       0.31378    1.16102    0.49434   1.00
C4       0.22933    0.99925    0.49980   1.00
C4       0.27067    1.00075    0.50020   1.00
C3       0.20756    1.00480    0.46489   1.00
C3       0.29244    1.01339    0.46719   1.00
C4       0.20850    0.99234    0.53500   1.00
C4       0.29150    0.98914    0.53414   1.00
C2       0.14648    1.00018    0.49940   1.00
C2       0.35352    1.00015    0.49939   1.00
C3       0.16690    1.00559    0.46496   1.00
C3       0.33310    1.01268    0.46686   1.00
C3       0.16694    0.99309    0.53396   1.00
C3       0.33306    0.98901    0.53287   1.00
H1       0.22112    1.00771    0.43671   1.00
H1       0.27888    1.02496    0.44133   1.00
C5       0.22935    0.98431    0.57011   1.00
C5       0.27065    0.97854    0.56857   1.00
H1       0.15114    1.01020    0.43796   1.00
H1       0.34886    1.02218    0.44117   1.00
H1       0.14947    0.98764    0.55954   1.00
H1       0.35053    0.98094    0.55775   1.00
C6       0.20766    0.98346    0.60912   1.00
C6       0.29234    0.95978    0.60277   1.00
H2       0.22642    0.99507    0.63282   1.00
H2       0.18263    1.00380    0.60948   1.00
C6       0.19276    0.94222    0.61848   1.00
H2       0.27358    0.93788    0.61750   1.00
H2       0.31737    0.94198    0.59292   1.00
C6       0.30724    0.99081    0.63150   1.00
H2       0.21726    0.92095    0.61930   1.00
C6       0.17168    0.94175    0.65771   1.00
H2       0.17240    0.93226    0.59520   1.00
C6       0.32832    0.97161    0.66571   1.00
H2       0.32760    1.01108    0.61631   1.00
H2       0.28274    1.00883    0.64284   1.00
H2       0.19178    0.95079    0.68150   1.00
H2       0.14620    0.96180    0.65719   1.00
H2       0.16102    0.91182    0.66411   1.00
H2       0.30822    0.95189    0.68179   1.00
H2       0.35380    0.95451    0.65524   1.00
H2       0.33898    0.99434    0.68622   1.00
C4       0.77067    0.99925    0.50020   1.00
C4       0.72933    1.00075    0.49980   1.00
C3       0.79244    1.00480    0.53511   1.00
C3       0.70756    1.01339    0.53281   1.00
C4       0.79150    0.99234    0.46500   1.00
C4       0.70850    0.98914    0.46586   1.00
C2       0.85352    1.00018    0.50060   1.00
C2       0.64648    1.00015    0.50061   1.00
C3       0.83310    1.00559    0.53504   1.00
C3       0.66690    1.01268    0.53314   1.00
C3       0.83306    0.99309    0.46604   1.00
C3       0.66694    0.98901    0.46713   1.00
H1       0.77888    1.00771    0.56329   1.00
H1       0.72112    1.02496    0.55867   1.00
C5       0.77065    0.98431    0.42989   1.00
C5       0.72935    0.97854    0.43143   1.00
H1       0.84886    1.01020    0.56204   1.00
H1       0.65114    1.02218    0.55883   1.00
H1       0.85053    0.98764    0.44046   1.00
H1       0.64947    0.98094    0.44225   1.00
C6       0.79234    0.98346    0.39088   1.00
C6       0.70766    0.95978    0.39723   1.00
H2       0.77358    0.99507    0.36718   1.00
H2       0.81737    1.00380    0.39052   1.00
C6       0.80724    0.94222    0.38152   1.00
H2       0.72642    0.93788    0.38250   1.00
H2       0.68263    0.94198    0.40708   1.00
C6       0.69276    0.99081    0.36850   1.00
H2       0.78274    0.92095    0.38070   1.00
C6       0.82832    0.94175    0.34229   1.00
H2       0.82760    0.93226    0.40480   1.00
C6       0.67168    0.97161    0.33429   1.00
H2       0.67240    1.01108    0.38369   1.00
H2       0.71726    1.00883    0.35716   1.00
H2       0.80822    0.95079    0.31850   1.00
H2       0.85380    0.96180    0.34281   1.00
H2       0.83898    0.91182    0.33589   1.00
H2       0.69178    0.95189    0.31821   1.00
H2       0.64620    0.95451    0.34476   1.00
H2       0.66102    0.99434    0.31378   1.00
C4       0.49980    0.72933    0.49925   1.00
C4       0.50020    0.77067    0.50075   1.00
C3       0.46489    0.70756    0.50480   1.00
C3       0.46719    0.79244    0.51339   1.00
C4       0.53500    0.70850    0.49234   1.00
C4       0.53414    0.79150    0.48914   1.00
C2       0.49940    0.64648    0.50018   1.00
C2       0.49939    0.85352    0.50015   1.00
C3       0.46496    0.66690    0.50559   1.00
C3       0.46686    0.83310    0.51268   1.00
C3       0.53396    0.66694    0.49309   1.00
C3       0.53287    0.83306    0.48901   1.00
H1       0.43671    0.72112    0.50771   1.00
H1       0.44133    0.77888    0.52496   1.00
C5       0.57011    0.72935    0.48431   1.00
C5       0.56857    0.77065    0.47854   1.00
H1       0.43796    0.65114    0.51020   1.00
H1       0.44117    0.84886    0.52218   1.00
H1       0.55954    0.64947    0.48764   1.00
H1       0.55775    0.85053    0.48094   1.00
C6       0.60912    0.70766    0.48346   1.00
C6       0.60277    0.79234    0.45978   1.00
H2       0.63282    0.72642    0.49507   1.00
H2       0.60948    0.68263    0.50380   1.00
C6       0.61848    0.69276    0.44222   1.00
H2       0.61750    0.77358    0.43788   1.00
H2       0.59292    0.81737    0.44198   1.00
C6       0.63150    0.80724    0.49081   1.00
H2       0.61930    0.71726    0.42095   1.00
C6       0.65771    0.67168    0.44175   1.00
H2       0.59520    0.67240    0.43226   1.00
C6       0.66571    0.82832    0.47161   1.00
H2       0.61631    0.82760    0.51108   1.00
H2       0.64284    0.78274    0.50883   1.00
H2       0.68150    0.69178    0.45079   1.00
H2       0.65719    0.64620    0.46180   1.00
H2       0.66411    0.66102    0.41182   1.00
H2       0.68179    0.80822    0.45189   1.00
H2       0.65524    0.85380    0.45451   1.00
H2       0.68622    0.83898    0.49434   1.00
C4       0.49925    0.99980    0.22933   1.00
C4       0.50075    1.00020    0.27067   1.00
C3       0.50480    0.96489    0.20756   1.00
C3       0.51339    0.96719    0.29244   1.00
C4       0.49234    1.03500    0.20850   1.00
C4       0.48914    1.03414    0.29150   1.00
C2       0.50018    0.99940    0.14648   1.00
C2       0.50015    0.99939    0.35352   1.00
C3       0.50559    0.96496    0.16690   1.00
C3       0.51268    0.96686    0.33310   1.00
C3       0.49309    1.03396    0.16694   1.00
C3       0.48901    1.03287    0.33306   1.00
H1       0.50771    0.93671    0.22112   1.00
H1       0.52496    0.94133    0.27888   1.00
C5       0.48431    1.07011    0.22935   1.00
C5       0.47854    1.06857    0.27065   1.00
H1       0.51020    0.93796    0.15114   1.00
H1       0.52218    0.94117    0.34886   1.00
H1       0.48764    1.05954    0.14947   1.00
H1       0.48094    1.05775    0.35053   1.00
C6       0.48346    1.10912    0.20766   1.00
C6       0.45978    1.10277    0.29234   1.00
H2       0.49507    1.13282    0.22642   1.00
H2       0.50380    1.10948    0.18263   1.00
C6       0.44222    1.11848    0.19276   1.00
H2       0.43788    1.11750    0.27358   1.00
H2       0.44198    1.09292    0.31737   1.00
C6       0.49081    1.13150    0.30724   1.00
H2       0.42095    1.11930    0.21726   1.00
C6       0.44175    1.15771    0.17168   1.00
H2       0.43226    1.09520    0.17240   1.00
C6       0.47161    1.16571    0.32832   1.00
H2       0.51108    1.11631    0.32760   1.00
H2       0.50883    1.14284    0.28274   1.00
H2       0.45079    1.18150    0.19178   1.00
H2       0.46180    1.15719    0.14620   1.00
H2       0.41182    1.16411    0.16102   1.00
H2       0.45189    1.18179    0.30822   1.00
H2       0.45451    1.15524    0.35380   1.00
H2       0.49434    1.18622    0.33898   1.00
C4       0.99925    0.50020    0.77067   1.00
C4       1.00075    0.49980    0.72933   1.00
C3       1.00480    0.53511    0.79244   1.00
C3       1.01339    0.53281    0.70756   1.00
C4       0.99234    0.46500    0.79150   1.00
C4       0.98914    0.46586    0.70850   1.00
C2       1.00018    0.50060    0.85352   1.00
C2       1.00015    0.50061    0.64648   1.00
C3       1.00559    0.53504    0.83310   1.00
C3       1.01268    0.53314    0.66690   1.00
C3       0.99309    0.46604    0.83306   1.00
C3       0.98901    0.46713    0.66694   1.00
H1       1.00771    0.56329    0.77888   1.00
H1       1.02496    0.55867    0.72112   1.00
C5       0.98431    0.42989    0.77065   1.00
C5       0.97854    0.43143    0.72935   1.00
H1       1.01020    0.56204    0.84886   1.00
H1       1.02218    0.55883    0.65114   1.00
H1       0.98764    0.44046    0.85053   1.00
H1       0.98094    0.44225    0.64947   1.00
C6       0.98346    0.39088    0.79234   1.00
C6       0.95978    0.39723    0.70766   1.00
H2       0.99507    0.36718    0.77358   1.00
H2       1.00380    0.39052    0.81737   1.00
C6       0.94222    0.38152    0.80724   1.00
H2       0.93788    0.38250    0.72642   1.00
H2       0.94198    0.40708    0.68263   1.00
C6       0.99081    0.36850    0.69276   1.00
H2       0.92095    0.38070    0.78274   1.00
C6       0.94175    0.34229    0.82832   1.00
H2       0.93226    0.40480    0.82760   1.00
C6       0.97161    0.33429    0.67168   1.00
H2       1.01108    0.38369    0.67240   1.00
H2       1.00883    0.35716    0.71726   1.00
H2       0.95079    0.31850    0.80822   1.00
H2       0.96180    0.34281    0.85380   1.00
H2       0.91182    0.33589    0.83898   1.00
H2       0.95189    0.31821    0.69178   1.00
H2       0.95451    0.34476    0.64620   1.00
H2       0.99434    0.31378    0.66102   1.00
C4       1.00020    0.77067    0.49925   1.00
C4       0.99980    0.72933    0.50075   1.00
C3       1.03511    0.79244    0.50480   1.00
C3       1.03281    0.70756    0.51339   1.00
C4       0.96500    0.79150    0.49234   1.00
C4       0.96586    0.70850    0.48914   1.00
C2       1.00060    0.85352    0.50018   1.00
C2       1.00061    0.64648    0.50015   1.00
C3       1.03504    0.83310    0.50559   1.00
C3       1.03314    0.66690    0.51268   1.00
C3       0.96604    0.83306    0.49309   1.00
C3       0.96713    0.66694    0.48901   1.00
H1       1.06329    0.77888    0.50771   1.00
H1       1.05867    0.72112    0.52496   1.00
C5       0.92989    0.77065    0.48431   1.00
C5       0.93143    0.72935    0.47854   1.00
H1       1.06204    0.84886    0.51020   1.00
H1       1.05883    0.65114    0.52218   1.00
H1       0.94046    0.85053    0.48764   1.00
H1       0.94225    0.64947    0.48094   1.00
C6       0.89088    0.79234    0.48346   1.00
C6       0.89723    0.70766    0.45978   1.00
H2       0.86718    0.77358    0.49507   1.00
H2       0.89052    0.81737    0.50380   1.00
C6       0.88152    0.80724    0.44222   1.00
H2       0.88250    0.72642    0.43788   1.00
H2       0.90708    0.68263    0.44198   1.00
C6       0.86850    0.69276    0.49081   1.00
H2       0.88070    0.78274    0.42095   1.00
C6       0.84229    0.82832    0.44175   1.00
H2       0.90480    0.82760    0.43226   1.00
C6       0.83429    0.67168    0.47161   1.00
H2       0.88369    0.67240    0.51108   1.00
H2       0.85716    0.71726    0.50883   1.00
H2       0.81850    0.80822    0.45079   1.00
H2       0.84281    0.85380    0.46180   1.00
H2       0.83589    0.83898    0.41182   1.00
H2       0.81821    0.69178    0.45189   1.00
H2       0.84476    0.64620    0.45451   1.00
H2       0.81378    0.66102    0.49434   1.00
C4       0.72933    0.49925    0.49980   1.00
C4       0.77067    0.50075    0.50020   1.00
C3       0.70756    0.50480    0.46489   1.00
C3       0.79244    0.51339    0.46719   1.00
C4       0.70850    0.49234    0.53500   1.00
C4       0.79150    0.48914    0.53414   1.00
C2       0.64648    0.50018    0.49940   1.00
C2       0.85352    0.50015    0.49939   1.00
C3       0.66690    0.50559    0.46496   1.00
C3       0.83310    0.51268    0.46686   1.00
C3       0.66694    0.49309    0.53396   1.00
C3       0.83306    0.48901    0.53287   1.00
H1       0.72112    0.50771    0.43671   1.00
H1       0.77888    0.52496    0.44133   1.00
C5       0.72935    0.48431    0.57011   1.00
C5       0.77065    0.47854    0.56857   1.00
H1       0.65114    0.51020    0.43796   1.00
H1       0.84886    0.52218    0.44117   1.00
H1       0.64947    0.48764    0.55954   1.00
H1       0.85053    0.48094    0.55775   1.00
C6       0.70766    0.48346    0.60912   1.00
C6       0.79234    0.45978    0.60277   1.00
H2       0.72642    0.49507    0.63282   1.00
H2       0.68263    0.50380    0.60948   1.00
C6       0.69276    0.44222    0.61848   1.00
H2       0.77358    0.43788    0.61750   1.00
H2       0.81737    0.44198    0.59292   1.00
C6       0.80724    0.49081    0.63150   1.00
H2       0.71726    0.42095    0.61930   1.00
C6       0.67168    0.44175    0.65771   1.00
H2       0.67240    0.43226    0.59520   1.00
C6       0.82832    0.47161    0.66571   1.00
H2       0.82760    0.51108    0.61631   1.00
H2       0.78274    0.50883    0.64284   1.00
H2       0.69178    0.45079    0.68150   1.00
H2       0.64620    0.46180    0.65719   1.00
H2       0.66102    0.41182    0.66411   1.00
H2       0.80822    0.45189    0.68179   1.00
H2       0.85380    0.45451    0.65524   1.00
H2       0.83898    0.49434    0.68622   1.00
C4       1.27067    0.49925    0.50020   1.00
C4       1.22933    0.50075    0.49980   1.00
C3       1.29244    0.50480    0.53511   1.00
C3       1.20756    0.51339    0.53281   1.00
C4       1.29150    0.49234    0.46500   1.00
C4       1.20850    0.48914    0.46586   1.00
C2       1.35352    0.50018    0.50060   1.00
C2       1.14648    0.50015    0.50061   1.00
C3       1.33310    0.50559    0.53504   1.00
C3       1.16690    0.51268    0.53314   1.00
C3       1.33306    0.49309    0.46604   1.00
C3       1.16694    0.48901    0.46713   1.00
H1       1.27888    0.50771    0.56329   1.00
H1       1.22112    0.52496    0.55867   1.00
C5       1.27065    0.48431    0.42989   1.00
C5       1.22935    0.47854    0.43143   1.00
H1       1.34886    0.51020    0.56204   1.00
H1       1.15114    0.52218    0.55883   1.00
H1       1.35053    0.48764    0.44046   1.00
H1       1.14947    0.48094    0.44225   1.00
C6       1.29234    0.48346    0.39088   1.00
C6       1.20766    0.45978    0.39723   1.00
H2       1.27358    0.49507    0.36718   1.00
H2       1.31737    0.50380    0.39052   1.00
C6       1.30724    0.44222    0.38152   1.00
H2       1.22642    0.43788    0.38250   1.00
H2       1.18263    0.44198    0.40708   1.00
C6       1.19276    0.49081    0.36850   1.00
H2       1.28274    0.42095    0.38070   1.00
C6       1.32832    0.44175    0.34229   1.00
H2       1.32760    0.43226    0.40480   1.00
C6       1.17168    0.47161    0.33429   1.00
H2       1.17240    0.51108    0.38369   1.00
H2       1.21726    0.50883    0.35716   1.00
H2       1.30822    0.45079    0.31850   1.00
H2       1.35380    0.46180    0.34281   1.00
H2       1.33898    0.41182    0.33589   1.00
H2       1.19178    0.45189    0.31821   1.00
H2       1.14620    0.45451    0.34476   1.00
H2       1.16102    0.49434    0.31378   1.00
C4       0.99980    0.22933    0.49925   1.00
C4       1.00020    0.27067    0.50075   1.00
C3       0.96489    0.20756    0.50480   1.00
C3       0.96719    0.29244    0.51339   1.00
C4       1.03500    0.20850    0.49234   1.00
C4       1.03414    0.29150    0.48914   1.00
C2       0.99940    0.14648    0.50018   1.00
C2       0.99939    0.35352    0.50015   1.00
C3       0.96496    0.16690    0.50559   1.00
C3       0.96686    0.33310    0.51268   1.00
C3       1.03396    0.16694    0.49309   1.00
C3       1.03287    0.33306    0.48901   1.00
H1       0.93671    0.22112    0.50771   1.00
H1       0.94133    0.27888    0.52496   1.00
C5       1.07011    0.22935    0.48431   1.00
C5       1.06857    0.27065    0.47854   1.00
H1       0.93796    0.15114    0.51020   1.00
H1       0.94117    0.34886    0.52218   1.00
H1       1.05954    0.14947    0.48764   1.00
H1       1.05775    0.35053    0.48094   1.00
C6       1.10912    0.20766    0.48346   1.00
C6       1.10277    0.29234    0.45978   1.00
H2       1.13282    0.22642    0.49507   1.00
H2       1.10948    0.18263    0.50380   1.00
C6       1.11848    0.19276    0.44222   1.00
H2       1.11750    0.27358    0.43788   1.00
H2       1.09292    0.31737    0.44198   1.00
C6       1.13150    0.30724    0.49081   1.00
H2       1.11930    0.21726    0.42095   1.00
C6       1.15771    0.17168    0.44175   1.00
H2       1.09520    0.17240    0.43226   1.00
C6       1.16571    0.32832    0.47161   1.00
H2       1.11631    0.32760    0.51108   1.00
H2       1.14284    0.28274    0.50883   1.00
H2       1.18150    0.19178    0.45079   1.00
H2       1.15719    0.14620    0.46180   1.00
H2       1.16411    0.16102    0.41182   1.00
H2       1.18179    0.30822    0.45189   1.00
H2       1.15524    0.35380    0.45451   1.00
H2       1.18622    0.33898    0.49434   1.00
C4       0.99925    0.49980    0.22933   1.00
C4       1.00075    0.50020    0.27067   1.00
C3       1.00480    0.46489    0.20756   1.00
C3       1.01339    0.46719    0.29244   1.00
C4       0.99234    0.53500    0.20850   1.00
C4       0.98914    0.53414    0.29150   1.00
C2       1.00018    0.49940    0.14648   1.00
C2       1.00015    0.49939    0.35352   1.00
C3       1.00559    0.46496    0.16690   1.00
C3       1.01268    0.46686    0.33310   1.00
C3       0.99309    0.53396    0.16694   1.00
C3       0.98901    0.53287    0.33306   1.00
H1       1.00771    0.43671    0.22112   1.00
H1       1.02496    0.44133    0.27888   1.00
C5       0.98431    0.57011    0.22935   1.00
C5       0.97854    0.56857    0.27065   1.00
H1       1.01020    0.43796    0.15114   1.00
H1       1.02218    0.44117    0.34886   1.00
H1       0.98764    0.55954    0.14947   1.00
H1       0.98094    0.55775    0.35053   1.00
C6       0.98346    0.60912    0.20766   1.00
C6       0.95978    0.60277    0.29234   1.00
H2       0.99507    0.63282    0.22642   1.00
H2       1.00380    0.60948    0.18263   1.00
C6       0.94222    0.61848    0.19276   1.00
H2       0.93788    0.61750    0.27358   1.00
H2       0.94198    0.59292    0.31737   1.00
C6       0.99081    0.63150    0.30724   1.00
H2       0.92095    0.61930    0.21726   1.00
C6       0.94175    0.65771    0.17168   1.00
H2       0.93226    0.59520    0.17240   1.00
C6       0.97161    0.66571    0.32832   1.00
H2       1.01108    0.61631    0.32760   1.00
H2       1.00883    0.64284    0.28274   1.00
H2       0.95079    0.68150    0.19178   1.00
H2       0.96180    0.65719    0.14620   1.00
H2       0.91182    0.66411    0.16102   1.00
H2       0.95189    0.68179    0.30822   1.00
H2       0.95451    0.65524    0.35380   1.00
H2       0.99434    0.68622    0.33898   1.00
