data_IRMOF10_SG202_interpen_Ligand12lp_label_w.

_audit_creation_method             'generated by an auxiliary program of Tobunporous'

_symmetry_space_group_name_H-M     'P 1'
_symmetry_Int_Tables_number        1
_symmetry_cell_setting             triclinic

_cell_length_a                    34.2800
_cell_length_b                    34.2800
_cell_length_c                    34.2800
_cell_angle_alpha                 90.0000
_cell_angle_beta                  90.0000
_cell_angle_gamma                 90.0000

loop_
_atom_site_label
_atom_site_fract_x
_atom_site_fract_y
_atom_site_fract_z
_atom_site_occupancy
O1       0.75000    0.75000    0.75000   1.00
Zn1      0.71720    0.78280    0.78280   1.00
Zn1      0.78280    0.71720    0.78280   1.00
Zn1      0.78280    0.78280    0.71720   1.00
Zn1      0.71720    0.71720    0.71720   1.00
O2       0.72650    0.77350    0.83820   1.00
O2       0.72650    0.83820    0.77350   1.00
O2       0.66180    0.77350    0.77350   1.00
O2       0.77350    0.72650    0.83820   1.00
O2       0.83820    0.72650    0.77350   1.00
O2       0.77350    0.66180    0.77350   1.00
O2       0.77350    0.83820    0.72650   1.00
O2       0.83820    0.77350    0.72650   1.00
O2       0.77350    0.77350    0.66180   1.00
O2       0.66180    0.72650    0.72650   1.00
O2       0.72650    0.66180    0.72650   1.00
O2       0.72650    0.72650    0.66180   1.00
C1       0.75000    0.75000    0.85520   1.00
C1       0.75000    0.85520    0.75000   1.00
C1       0.64480    0.75000    0.75000   1.00
C1       0.85520    0.75000    0.75000   1.00
C1       0.75000    0.64480    0.75000   1.00
C1       0.75000    0.75000    0.64480   1.00
O1       0.25000    0.25000    0.75000   1.00
Zn1      0.21720    0.28280    0.78280   1.00
Zn1      0.28280    0.21720    0.78280   1.00
Zn1      0.28280    0.28280    0.71720   1.00
Zn1      0.21720    0.21720    0.71720   1.00
O2       0.22650    0.27350    0.83820   1.00
O2       0.22650    0.33820    0.77350   1.00
O2       0.16180    0.27350    0.77350   1.00
O2       0.27350    0.22650    0.83820   1.00
O2       0.33820    0.22650    0.77350   1.00
O2       0.27350    0.16180    0.77350   1.00
O2       0.27350    0.33820    0.72650   1.00
O2       0.33820    0.27350    0.72650   1.00
O2       0.27350    0.27350    0.66180   1.00
O2       0.16180    0.22650    0.72650   1.00
O2       0.22650    0.16180    0.72650   1.00
O2       0.22650    0.22650    0.66180   1.00
C1       0.25000    0.25000    0.85520   1.00
C1       0.25000    0.35520    0.75000   1.00
C1       0.14480    0.25000    0.75000   1.00
C1       0.35520    0.25000    0.75000   1.00
C1       0.25000    0.14480    0.75000   1.00
C1       0.25000    0.25000    0.64480   1.00
O1       0.25000    0.75000    0.25000   1.00
Zn1      0.21720    0.78280    0.28280   1.00
Zn1      0.28280    0.71720    0.28280   1.00
Zn1      0.28280    0.78280    0.21720   1.00
Zn1      0.21720    0.71720    0.21720   1.00
O2       0.22650    0.77350    0.33820   1.00
O2       0.22650    0.83820    0.27350   1.00
O2       0.16180    0.77350    0.27350   1.00
O2       0.27350    0.72650    0.33820   1.00
O2       0.33820    0.72650    0.27350   1.00
O2       0.27350    0.66180    0.27350   1.00
O2       0.27350    0.83820    0.22650   1.00
O2       0.33820    0.77350    0.22650   1.00
O2       0.27350    0.77350    0.16180   1.00
O2       0.16180    0.72650    0.22650   1.00
O2       0.22650    0.66180    0.22650   1.00
O2       0.22650    0.72650    0.16180   1.00
C1       0.25000    0.75000    0.35520   1.00
C1       0.25000    0.85520    0.25000   1.00
C1       0.14480    0.75000    0.25000   1.00
C1       0.35520    0.75000    0.25000   1.00
C1       0.25000    0.64480    0.25000   1.00
C1       0.25000    0.75000    0.14480   1.00
O1       0.75000    0.25000    0.25000   1.00
Zn1      0.71720    0.28280    0.28280   1.00
Zn1      0.78280    0.21720    0.28280   1.00
Zn1      0.78280    0.28280    0.21720   1.00
Zn1      0.71720    0.21720    0.21720   1.00
O2       0.72650    0.27350    0.33820   1.00
O2       0.72650    0.33820    0.27350   1.00
O2       0.66180    0.27350    0.27350   1.00
O2       0.77350    0.22650    0.33820   1.00
O2       0.83820    0.22650    0.27350   1.00
O2       0.77350    0.16180    0.27350   1.00
O2       0.77350    0.33820    0.22650   1.00
O2       0.83820    0.27350    0.22650   1.00
O2       0.77350    0.27350    0.16180   1.00
O2       0.66180    0.22650    0.22650   1.00
O2       0.72650    0.16180    0.22650   1.00
O2       0.72650    0.22650    0.16180   1.00
C1       0.75000    0.25000    0.35520   1.00
C1       0.75000    0.35520    0.25000   1.00
C1       0.64480    0.25000    0.25000   1.00
C1       0.85520    0.25000    0.25000   1.00
C1       0.75000    0.14480    0.25000   1.00
C1       0.75000    0.25000    0.14480   1.00
O1       0.25000    0.25000    0.25000   1.00
Zn1      0.28280    0.21720    0.21720   1.00
Zn1      0.21720    0.28280    0.21720   1.00
Zn1      0.21720    0.21720    0.28280   1.00
Zn1      0.28280    0.28280    0.28280   1.00
O2       0.27350    0.22650    0.16180   1.00
O2       0.27350    0.16180    0.22650   1.00
O2       0.33820    0.22650    0.22650   1.00
O2       0.22650    0.27350    0.16180   1.00
O2       0.16180    0.27350    0.22650   1.00
O2       0.22650    0.33820    0.22650   1.00
O2       0.22650    0.16180    0.27350   1.00
O2       0.16180    0.22650    0.27350   1.00
O2       0.22650    0.22650    0.33820   1.00
O2       0.33820    0.27350    0.27350   1.00
O2       0.27350    0.33820    0.27350   1.00
O2       0.27350    0.27350    0.33820   1.00
C1       0.25000    0.25000    0.14480   1.00
C1       0.25000    0.14480    0.25000   1.00
C1       0.35520    0.25000    0.25000   1.00
C1       0.14480    0.25000    0.25000   1.00
C1       0.25000    0.35520    0.25000   1.00
C1       0.25000    0.25000    0.35520   1.00
O1       0.75000    0.75000    0.25000   1.00
Zn1      0.78280    0.71720    0.21720   1.00
Zn1      0.71720    0.78280    0.21720   1.00
Zn1      0.71720    0.71720    0.28280   1.00
Zn1      0.78280    0.78280    0.28280   1.00
O2       0.77350    0.72650    0.16180   1.00
O2       0.77350    0.66180    0.22650   1.00
O2       0.83820    0.72650    0.22650   1.00
O2       0.72650    0.77350    0.16180   1.00
O2       0.66180    0.77350    0.22650   1.00
O2       0.72650    0.83820    0.22650   1.00
O2       0.72650    0.66180    0.27350   1.00
O2       0.66180    0.72650    0.27350   1.00
O2       0.72650    0.72650    0.33820   1.00
O2       0.83820    0.77350    0.27350   1.00
O2       0.77350    0.83820    0.27350   1.00
O2       0.77350    0.77350    0.33820   1.00
C1       0.75000    0.75000    0.14480   1.00
C1       0.75000    0.64480    0.25000   1.00
C1       0.85520    0.75000    0.25000   1.00
C1       0.64480    0.75000    0.25000   1.00
C1       0.75000    0.85520    0.25000   1.00
C1       0.75000    0.75000    0.35520   1.00
O1       0.75000    0.25000    0.75000   1.00
Zn1      0.78280    0.21720    0.71720   1.00
Zn1      0.71720    0.28280    0.71720   1.00
Zn1      0.71720    0.21720    0.78280   1.00
Zn1      0.78280    0.28280    0.78280   1.00
O2       0.77350    0.22650    0.66180   1.00
O2       0.77350    0.16180    0.72650   1.00
O2       0.83820    0.22650    0.72650   1.00
O2       0.72650    0.27350    0.66180   1.00
O2       0.66180    0.27350    0.72650   1.00
O2       0.72650    0.33820    0.72650   1.00
O2       0.72650    0.16180    0.77350   1.00
O2       0.66180    0.22650    0.77350   1.00
O2       0.72650    0.22650    0.83820   1.00
O2       0.83820    0.27350    0.77350   1.00
O2       0.77350    0.33820    0.77350   1.00
O2       0.77350    0.27350    0.83820   1.00
C1       0.75000    0.25000    0.64480   1.00
C1       0.75000    0.14480    0.75000   1.00
C1       0.85520    0.25000    0.75000   1.00
C1       0.64480    0.25000    0.75000   1.00
C1       0.75000    0.35520    0.75000   1.00
C1       0.75000    0.25000    0.85520   1.00
O1       0.25000    0.75000    0.75000   1.00
Zn1      0.28280    0.71720    0.71720   1.00
Zn1      0.21720    0.78280    0.71720   1.00
Zn1      0.21720    0.71720    0.78280   1.00
Zn1      0.28280    0.78280    0.78280   1.00
O2       0.27350    0.72650    0.66180   1.00
O2       0.27350    0.66180    0.72650   1.00
O2       0.33820    0.72650    0.72650   1.00
O2       0.22650    0.77350    0.66180   1.00
O2       0.16180    0.77350    0.72650   1.00
O2       0.22650    0.83820    0.72650   1.00
O2       0.22650    0.66180    0.77350   1.00
O2       0.16180    0.72650    0.77350   1.00
O2       0.22650    0.72650    0.83820   1.00
O2       0.33820    0.77350    0.77350   1.00
O2       0.27350    0.83820    0.77350   1.00
O2       0.27350    0.77350    0.83820   1.00
C1       0.25000    0.75000    0.64480   1.00
C1       0.25000    0.64480    0.75000   1.00
C1       0.35520    0.75000    0.75000   1.00
C1       0.14480    0.75000    0.75000   1.00
C1       0.25000    0.85520    0.75000   1.00
C1       0.25000    0.75000    0.85520   1.00
O1       1.00000    1.00000    1.00000   1.00
Zn1      0.96720    1.03280    1.03280   1.00
Zn1      1.03280    0.96720    1.03280   1.00
Zn1      1.03280    1.03280    0.96720   1.00
Zn1      0.96720    0.96720    0.96720   1.00
O2       0.97650    1.02350    1.08820   1.00
O2       0.97650    1.08820    1.02350   1.00
O2       0.91180    1.02350    1.02350   1.00
O2       1.02350    0.97650    1.08820   1.00
O2       1.08820    0.97650    1.02350   1.00
O2       1.02350    0.91180    1.02350   1.00
O2       1.02350    1.08820    0.97650   1.00
O2       1.08820    1.02350    0.97650   1.00
O2       1.02350    1.02350    0.91180   1.00
O2       0.91180    0.97650    0.97650   1.00
O2       0.97650    0.91180    0.97650   1.00
O2       0.97650    0.97650    0.91180   1.00
C1       1.00000    1.00000    1.10520   1.00
C1       1.00000    1.10520    1.00000   1.00
C1       0.89480    1.00000    1.00000   1.00
C1       1.10520    1.00000    1.00000   1.00
C1       1.00000    0.89480    1.00000   1.00
C1       1.00000    1.00000    0.89480   1.00
O1       0.50000    0.50000    1.00000   1.00
Zn1      0.46720    0.53280    1.03280   1.00
Zn1      0.53280    0.46720    1.03280   1.00
Zn1      0.53280    0.53280    0.96720   1.00
Zn1      0.46720    0.46720    0.96720   1.00
O2       0.47650    0.52350    1.08820   1.00
O2       0.47650    0.58820    1.02350   1.00
O2       0.41180    0.52350    1.02350   1.00
O2       0.52350    0.47650    1.08820   1.00
O2       0.58820    0.47650    1.02350   1.00
O2       0.52350    0.41180    1.02350   1.00
O2       0.52350    0.58820    0.97650   1.00
O2       0.58820    0.52350    0.97650   1.00
O2       0.52350    0.52350    0.91180   1.00
O2       0.41180    0.47650    0.97650   1.00
O2       0.47650    0.41180    0.97650   1.00
O2       0.47650    0.47650    0.91180   1.00
C1       0.50000    0.50000    1.10520   1.00
C1       0.50000    0.60520    1.00000   1.00
C1       0.39480    0.50000    1.00000   1.00
C1       0.60520    0.50000    1.00000   1.00
C1       0.50000    0.39480    1.00000   1.00
C1       0.50000    0.50000    0.89480   1.00
O1       0.50000    1.00000    0.50000   1.00
Zn1      0.46720    1.03280    0.53280   1.00
Zn1      0.53280    0.96720    0.53280   1.00
Zn1      0.53280    1.03280    0.46720   1.00
Zn1      0.46720    0.96720    0.46720   1.00
O2       0.47650    1.02350    0.58820   1.00
O2       0.47650    1.08820    0.52350   1.00
O2       0.41180    1.02350    0.52350   1.00
O2       0.52350    0.97650    0.58820   1.00
O2       0.58820    0.97650    0.52350   1.00
O2       0.52350    0.91180    0.52350   1.00
O2       0.52350    1.08820    0.47650   1.00
O2       0.58820    1.02350    0.47650   1.00
O2       0.52350    1.02350    0.41180   1.00
O2       0.41180    0.97650    0.47650   1.00
O2       0.47650    0.91180    0.47650   1.00
O2       0.47650    0.97650    0.41180   1.00
C1       0.50000    1.00000    0.60520   1.00
C1       0.50000    1.10520    0.50000   1.00
C1       0.39480    1.00000    0.50000   1.00
C1       0.60520    1.00000    0.50000   1.00
C1       0.50000    0.89480    0.50000   1.00
C1       0.50000    1.00000    0.39480   1.00
O1       1.00000    0.50000    0.50000   1.00
Zn1      0.96720    0.53280    0.53280   1.00
Zn1      1.03280    0.46720    0.53280   1.00
Zn1      1.03280    0.53280    0.46720   1.00
Zn1      0.96720    0.46720    0.46720   1.00
O2       0.97650    0.52350    0.58820   1.00
O2       0.97650    0.58820    0.52350   1.00
O2       0.91180    0.52350    0.52350   1.00
O2       1.02350    0.47650    0.58820   1.00
O2       1.08820    0.47650    0.52350   1.00
O2       1.02350    0.41180    0.52350   1.00
O2       1.02350    0.58820    0.47650   1.00
O2       1.08820    0.52350    0.47650   1.00
O2       1.02350    0.52350    0.41180   1.00
O2       0.91180    0.47650    0.47650   1.00
O2       0.97650    0.41180    0.47650   1.00
O2       0.97650    0.47650    0.41180   1.00
C1       1.00000    0.50000    0.60520   1.00
C1       1.00000    0.60520    0.50000   1.00
C1       0.89480    0.50000    0.50000   1.00
C1       1.10520    0.50000    0.50000   1.00
C1       1.00000    0.39480    0.50000   1.00
C1       1.00000    0.50000    0.39480   1.00
O1       0.50000    0.50000    0.50000   1.00
Zn1      0.53280    0.46720    0.46720   1.00
Zn1      0.46720    0.53280    0.46720   1.00
Zn1      0.46720    0.46720    0.53280   1.00
Zn1      0.53280    0.53280    0.53280   1.00
O2       0.52350    0.47650    0.41180   1.00
O2       0.52350    0.41180    0.47650   1.00
O2       0.58820    0.47650    0.47650   1.00
O2       0.47650    0.52350    0.41180   1.00
O2       0.41180    0.52350    0.47650   1.00
O2       0.47650    0.58820    0.47650   1.00
O2       0.47650    0.41180    0.52350   1.00
O2       0.41180    0.47650    0.52350   1.00
O2       0.47650    0.47650    0.58820   1.00
O2       0.58820    0.52350    0.52350   1.00
O2       0.52350    0.58820    0.52350   1.00
O2       0.52350    0.52350    0.58820   1.00
C1       0.50000    0.50000    0.39480   1.00
C1       0.50000    0.39480    0.50000   1.00
C1       0.60520    0.50000    0.50000   1.00
C1       0.39480    0.50000    0.50000   1.00
C1       0.50000    0.60520    0.50000   1.00
C1       0.50000    0.50000    0.60520   1.00
O1       1.00000    1.00000    0.50000   1.00
Zn1      1.03280    0.96720    0.46720   1.00
Zn1      0.96720    1.03280    0.46720   1.00
Zn1      0.96720    0.96720    0.53280   1.00
Zn1      1.03280    1.03280    0.53280   1.00
O2       1.02350    0.97650    0.41180   1.00
O2       1.02350    0.91180    0.47650   1.00
O2       1.08820    0.97650    0.47650   1.00
O2       0.97650    1.02350    0.41180   1.00
O2       0.91180    1.02350    0.47650   1.00
O2       0.97650    1.08820    0.47650   1.00
O2       0.97650    0.91180    0.52350   1.00
O2       0.91180    0.97650    0.52350   1.00
O2       0.97650    0.97650    0.58820   1.00
O2       1.08820    1.02350    0.52350   1.00
O2       1.02350    1.08820    0.52350   1.00
O2       1.02350    1.02350    0.58820   1.00
C1       1.00000    1.00000    0.39480   1.00
C1       1.00000    0.89480    0.50000   1.00
C1       1.10520    1.00000    0.50000   1.00
C1       0.89480    1.00000    0.50000   1.00
C1       1.00000    1.10520    0.50000   1.00
C1       1.00000    1.00000    0.60520   1.00
O1       1.00000    0.50000    1.00000   1.00
Zn1      1.03280    0.46720    0.96720   1.00
Zn1      0.96720    0.53280    0.96720   1.00
Zn1      0.96720    0.46720    1.03280   1.00
Zn1      1.03280    0.53280    1.03280   1.00
O2       1.02350    0.47650    0.91180   1.00
O2       1.02350    0.41180    0.97650   1.00
O2       1.08820    0.47650    0.97650   1.00
O2       0.97650    0.52350    0.91180   1.00
O2       0.91180    0.52350    0.97650   1.00
O2       0.97650    0.58820    0.97650   1.00
O2       0.97650    0.41180    1.02350   1.00
O2       0.91180    0.47650    1.02350   1.00
O2       0.97650    0.47650    1.08820   1.00
O2       1.08820    0.52350    1.02350   1.00
O2       1.02350    0.58820    1.02350   1.00
O2       1.02350    0.52350    1.08820   1.00
C1       1.00000    0.50000    0.89480   1.00
C1       1.00000    0.39480    1.00000   1.00
C1       1.10520    0.50000    1.00000   1.00
C1       0.89480    0.50000    1.00000   1.00
C1       1.00000    0.60520    1.00000   1.00
C1       1.00000    0.50000    1.10520   1.00
O1       0.50000    1.00000    1.00000   1.00
Zn1      0.53280    0.96720    0.96720   1.00
Zn1      0.46720    1.03280    0.96720   1.00
Zn1      0.46720    0.96720    1.03280   1.00
Zn1      0.53280    1.03280    1.03280   1.00
O2       0.52350    0.97650    0.91180   1.00
O2       0.52350    0.91180    0.97650   1.00
O2       0.58820    0.97650    0.97650   1.00
O2       0.47650    1.02350    0.91180   1.00
O2       0.41180    1.02350    0.97650   1.00
O2       0.47650    1.08820    0.97650   1.00
O2       0.47650    0.91180    1.02350   1.00
O2       0.41180    0.97650    1.02350   1.00
O2       0.47650    0.97650    1.08820   1.00
O2       0.58820    1.02350    1.02350   1.00
O2       0.52350    1.08820    1.02350   1.00
O2       0.52350    1.02350    1.08820   1.00
C1       0.50000    1.00000    0.89480   1.00
C1       0.50000    0.89480    1.00000   1.00
C1       0.60520    1.00000    1.00000   1.00
C1       0.39480    1.00000    1.00000   1.00
C1       0.50000    1.10520    1.00000   1.00
C1       0.50000    1.00000    1.10520   1.00
C4       0.74925    0.74980    1.02067   1.00
C4       0.75075    0.75020    0.97933   1.00
C3       0.73660    0.78281    1.04244   1.00
C3       0.74519    0.78511    0.95756   1.00
C4       0.76087    0.71586    1.04150   1.00
C4       0.75767    0.71500    0.95850   1.00
C2       0.74985    0.75061    1.10352   1.00
C2       0.74982    0.75060    0.89648   1.00
C3       0.73732    0.78314    1.08310   1.00
C3       0.74441    0.78504    0.91690   1.00
C3       0.76099    0.71713    1.08306   1.00
C3       0.75692    0.71604    0.91694   1.00
H1       0.72503    0.80867    1.02888   1.00
H1       0.74228    0.81329    0.97112   1.00
C5       0.77147    0.68143    1.02065   1.00
C5       0.76570    0.67989    0.97935   1.00
H1       0.72781    0.80883    1.09886   1.00
H1       0.73979    0.81204    0.90114   1.00
H1       0.76907    0.69226    1.10053   1.00
H1       0.76237    0.69046    0.89947   1.00
C6       0.79024    0.64724    1.04234   1.00
C6       0.76655    0.64089    0.95766   1.00
H2       0.81214    0.63251    1.02358   1.00
H2       0.80804    0.65709    1.06737   1.00
C6       0.75921    0.61850    1.05724   1.00
H2       0.75496    0.61718    0.97642   1.00
H2       0.74621    0.64052    0.93263   1.00
C6       0.80780    0.63152    0.94276   1.00
H2       0.74119    0.60716    1.03274   1.00
C6       0.77842    0.58429    1.07832   1.00
H2       0.73894    0.63369    1.07760   1.00
C6       0.80828    0.59230    0.92168   1.00
H2       0.81776    0.65482    0.92240   1.00
H2       0.82907    0.63072    0.96726   1.00
H2       0.79814    0.56822    1.05822   1.00
H2       0.79552    0.59477    1.10380   1.00
H2       0.75569    0.56378    1.08898   1.00
H2       0.79924    0.56851    0.94178   1.00
H2       0.78823    0.59282    0.89620   1.00
H2       0.83821    0.58590    0.91102   1.00
C4       0.74980    1.02067    0.74925   1.00
C4       0.75020    0.97933    0.75075   1.00
C3       0.78281    1.04244    0.73660   1.00
C3       0.78511    0.95756    0.74519   1.00
C4       0.71586    1.04150    0.76087   1.00
C4       0.71500    0.95850    0.75767   1.00
C2       0.75061    1.10352    0.74985   1.00
C2       0.75060    0.89648    0.74982   1.00
C3       0.78314    1.08310    0.73732   1.00
C3       0.78504    0.91690    0.74441   1.00
C3       0.71713    1.08306    0.76099   1.00
C3       0.71604    0.91694    0.75692   1.00
H1       0.80867    1.02888    0.72503   1.00
H1       0.81329    0.97112    0.74228   1.00
C5       0.68143    1.02065    0.77147   1.00
C5       0.67989    0.97935    0.76570   1.00
H1       0.80883    1.09886    0.72781   1.00
H1       0.81204    0.90114    0.73979   1.00
H1       0.69226    1.10053    0.76907   1.00
H1       0.69046    0.89947    0.76237   1.00
C6       0.64724    1.04234    0.79024   1.00
C6       0.64089    0.95766    0.76655   1.00
H2       0.63251    1.02358    0.81214   1.00
H2       0.65709    1.06737    0.80804   1.00
C6       0.61850    1.05724    0.75921   1.00
H2       0.61718    0.97642    0.75496   1.00
H2       0.64052    0.93263    0.74621   1.00
C6       0.63152    0.94276    0.80780   1.00
H2       0.60716    1.03274    0.74119   1.00
C6       0.58429    1.07832    0.77842   1.00
H2       0.63369    1.07760    0.73894   1.00
C6       0.59230    0.92168    0.80828   1.00
H2       0.65482    0.92240    0.81776   1.00
H2       0.63072    0.96726    0.82907   1.00
H2       0.56822    1.05822    0.79814   1.00
H2       0.59477    1.10380    0.79552   1.00
H2       0.56378    1.08898    0.75569   1.00
H2       0.56851    0.94178    0.79924   1.00
H2       0.59282    0.89620    0.78823   1.00
H2       0.58590    0.91102    0.83821   1.00
C4       0.47933    0.74925    0.75020   1.00
C4       0.52067    0.75075    0.74980   1.00
C3       0.45756    0.73660    0.71719   1.00
C3       0.54244    0.74519    0.71489   1.00
C4       0.45850    0.76087    0.78414   1.00
C4       0.54150    0.75767    0.78500   1.00
C2       0.39648    0.74985    0.74939   1.00
C2       0.60352    0.74982    0.74940   1.00
C3       0.41690    0.73732    0.71686   1.00
C3       0.58310    0.74441    0.71496   1.00
C3       0.41694    0.76099    0.78287   1.00
C3       0.58306    0.75692    0.78396   1.00
H1       0.47112    0.72503    0.69133   1.00
H1       0.52888    0.74228    0.68671   1.00
C5       0.47935    0.77147    0.81857   1.00
C5       0.52065    0.76570    0.82011   1.00
H1       0.40114    0.72781    0.69117   1.00
H1       0.59886    0.73979    0.68796   1.00
H1       0.39947    0.76907    0.80774   1.00
H1       0.60053    0.76237    0.80954   1.00
C6       0.45766    0.79024    0.85276   1.00
C6       0.54234    0.76655    0.85911   1.00
H2       0.47642    0.81214    0.86749   1.00
H2       0.43263    0.80804    0.84291   1.00
C6       0.44276    0.75921    0.88150   1.00
H2       0.52358    0.75496    0.88282   1.00
H2       0.56737    0.74621    0.85948   1.00
C6       0.55724    0.80780    0.86848   1.00
H2       0.46726    0.74119    0.89284   1.00
C6       0.42168    0.77842    0.91571   1.00
H2       0.42240    0.73894    0.86631   1.00
C6       0.57832    0.80828    0.90770   1.00
H2       0.57760    0.81776    0.84518   1.00
H2       0.53274    0.82907    0.86928   1.00
H2       0.44178    0.79814    0.93178   1.00
H2       0.39620    0.79552    0.90523   1.00
H2       0.41102    0.75569    0.93622   1.00
H2       0.55822    0.79924    0.93149   1.00
H2       0.60380    0.78823    0.90718   1.00
H2       0.58898    0.83821    0.91410   1.00
C4       1.02067    0.74925    0.74980   1.00
C4       0.97933    0.75075    0.75020   1.00
C3       1.04244    0.73660    0.78281   1.00
C3       0.95756    0.74519    0.78511   1.00
C4       1.04150    0.76087    0.71586   1.00
C4       0.95850    0.75767    0.71500   1.00
C2       1.10352    0.74985    0.75061   1.00
C2       0.89648    0.74982    0.75060   1.00
C3       1.08310    0.73732    0.78314   1.00
C3       0.91690    0.74441    0.78504   1.00
C3       1.08306    0.76099    0.71713   1.00
C3       0.91694    0.75692    0.71604   1.00
H1       1.02888    0.72503    0.80867   1.00
H1       0.97112    0.74228    0.81329   1.00
C5       1.02065    0.77147    0.68143   1.00
C5       0.97935    0.76570    0.67989   1.00
H1       1.09886    0.72781    0.80883   1.00
H1       0.90114    0.73979    0.81204   1.00
H1       1.10053    0.76907    0.69226   1.00
H1       0.89947    0.76237    0.69046   1.00
C6       1.04234    0.79024    0.64724   1.00
C6       0.95766    0.76655    0.64089   1.00
H2       1.02358    0.81214    0.63251   1.00
H2       1.06737    0.80804    0.65709   1.00
C6       1.05724    0.75921    0.61850   1.00
H2       0.97642    0.75496    0.61718   1.00
H2       0.93263    0.74621    0.64052   1.00
C6       0.94276    0.80780    0.63152   1.00
H2       1.03274    0.74119    0.60716   1.00
C6       1.07832    0.77842    0.58429   1.00
H2       1.07760    0.73894    0.63369   1.00
C6       0.92168    0.80828    0.59230   1.00
H2       0.92240    0.81776    0.65482   1.00
H2       0.96726    0.82907    0.63072   1.00
H2       1.05822    0.79814    0.56822   1.00
H2       1.10380    0.79552    0.59477   1.00
H2       1.08898    0.75569    0.56378   1.00
H2       0.94178    0.79924    0.56851   1.00
H2       0.89620    0.78823    0.59282   1.00
H2       0.91102    0.83821    0.58590   1.00
C4       0.75020    0.47933    0.74925   1.00
C4       0.74980    0.52067    0.75075   1.00
C3       0.71719    0.45756    0.73660   1.00
C3       0.71489    0.54244    0.74519   1.00
C4       0.78414    0.45850    0.76087   1.00
C4       0.78500    0.54150    0.75767   1.00
C2       0.74939    0.39648    0.74985   1.00
C2       0.74940    0.60352    0.74982   1.00
C3       0.71686    0.41690    0.73732   1.00
C3       0.71496    0.58310    0.74441   1.00
C3       0.78287    0.41694    0.76099   1.00
C3       0.78396    0.58306    0.75692   1.00
H1       0.69133    0.47112    0.72503   1.00
H1       0.68671    0.52888    0.74228   1.00
C5       0.81857    0.47935    0.77147   1.00
C5       0.82011    0.52065    0.76570   1.00
H1       0.69117    0.40114    0.72781   1.00
H1       0.68796    0.59886    0.73979   1.00
H1       0.80774    0.39947    0.76907   1.00
H1       0.80954    0.60053    0.76237   1.00
C6       0.85276    0.45766    0.79024   1.00
C6       0.85911    0.54234    0.76655   1.00
H2       0.86749    0.47642    0.81214   1.00
H2       0.84291    0.43263    0.80804   1.00
C6       0.88150    0.44276    0.75921   1.00
H2       0.88282    0.52358    0.75496   1.00
H2       0.85948    0.56737    0.74621   1.00
C6       0.86848    0.55724    0.80780   1.00
H2       0.89284    0.46726    0.74119   1.00
C6       0.91571    0.42168    0.77842   1.00
H2       0.86631    0.42240    0.73894   1.00
C6       0.90770    0.57832    0.80828   1.00
H2       0.84518    0.57760    0.81776   1.00
H2       0.86928    0.53274    0.82907   1.00
H2       0.93178    0.44178    0.79814   1.00
H2       0.90523    0.39620    0.79552   1.00
H2       0.93622    0.41102    0.75569   1.00
H2       0.93149    0.55822    0.79924   1.00
H2       0.90718    0.60380    0.78823   1.00
H2       0.91410    0.58898    0.83821   1.00
C4       0.74925    0.75020    0.47933   1.00
C4       0.75075    0.74980    0.52067   1.00
C3       0.73660    0.71719    0.45756   1.00
C3       0.74519    0.71489    0.54244   1.00
C4       0.76087    0.78414    0.45850   1.00
C4       0.75767    0.78500    0.54150   1.00
C2       0.74985    0.74939    0.39648   1.00
C2       0.74982    0.74940    0.60352   1.00
C3       0.73732    0.71686    0.41690   1.00
C3       0.74441    0.71496    0.58310   1.00
C3       0.76099    0.78287    0.41694   1.00
C3       0.75692    0.78396    0.58306   1.00
H1       0.72503    0.69133    0.47112   1.00
H1       0.74228    0.68671    0.52888   1.00
C5       0.77147    0.81857    0.47935   1.00
C5       0.76570    0.82011    0.52065   1.00
H1       0.72781    0.69117    0.40114   1.00
H1       0.73979    0.68796    0.59886   1.00
H1       0.76907    0.80774    0.39947   1.00
H1       0.76237    0.80954    0.60053   1.00
C6       0.79024    0.85276    0.45766   1.00
C6       0.76655    0.85911    0.54234   1.00
H2       0.81214    0.86749    0.47642   1.00
H2       0.80804    0.84291    0.43263   1.00
C6       0.75921    0.88150    0.44276   1.00
H2       0.75496    0.88282    0.52358   1.00
H2       0.74621    0.85948    0.56737   1.00
C6       0.80780    0.86848    0.55724   1.00
H2       0.74119    0.89284    0.46726   1.00
C6       0.77842    0.91571    0.42168   1.00
H2       0.73894    0.86631    0.42240   1.00
C6       0.80828    0.90770    0.57832   1.00
H2       0.81776    0.84518    0.57760   1.00
H2       0.82907    0.86928    0.53274   1.00
H2       0.79814    0.93178    0.44178   1.00
H2       0.79552    0.90523    0.39620   1.00
H2       0.75569    0.93622    0.41102   1.00
H2       0.79924    0.93149    0.55822   1.00
H2       0.78823    0.90718    0.60380   1.00
H2       0.83821    0.91410    0.58898   1.00
C4       0.24925    0.24980    1.02067   1.00
C4       0.25075    0.25020    0.97933   1.00
C3       0.23660    0.28281    1.04244   1.00
C3       0.24519    0.28511    0.95756   1.00
C4       0.26087    0.21586    1.04150   1.00
C4       0.25767    0.21500    0.95850   1.00
C2       0.24985    0.25061    1.10352   1.00
C2       0.24982    0.25060    0.89648   1.00
C3       0.23732    0.28314    1.08310   1.00
C3       0.24441    0.28504    0.91690   1.00
C3       0.26099    0.21713    1.08306   1.00
C3       0.25692    0.21604    0.91694   1.00
H1       0.22503    0.30867    1.02888   1.00
H1       0.24228    0.31329    0.97112   1.00
C5       0.27147    0.18143    1.02065   1.00
C5       0.26570    0.17989    0.97935   1.00
H1       0.22781    0.30883    1.09886   1.00
H1       0.23979    0.31204    0.90114   1.00
H1       0.26907    0.19226    1.10053   1.00
H1       0.26237    0.19046    0.89947   1.00
C6       0.29024    0.14724    1.04234   1.00
C6       0.26655    0.14089    0.95766   1.00
H2       0.31214    0.13251    1.02358   1.00
H2       0.30804    0.15709    1.06737   1.00
C6       0.25921    0.11850    1.05724   1.00
H2       0.25496    0.11718    0.97642   1.00
H2       0.24621    0.14052    0.93263   1.00
C6       0.30780    0.13152    0.94276   1.00
H2       0.24119    0.10716    1.03274   1.00
C6       0.27842    0.08429    1.07832   1.00
H2       0.23894    0.13369    1.07760   1.00
C6       0.30828    0.09230    0.92168   1.00
H2       0.31776    0.15482    0.92240   1.00
H2       0.32907    0.13072    0.96726   1.00
H2       0.29814    0.06822    1.05822   1.00
H2       0.29552    0.09477    1.10380   1.00
H2       0.25569    0.06378    1.08898   1.00
H2       0.29924    0.06851    0.94178   1.00
H2       0.28823    0.09282    0.89620   1.00
H2       0.33821    0.08590    0.91102   1.00
C4       0.24980    0.52067    0.74925   1.00
C4       0.25020    0.47933    0.75075   1.00
C3       0.28281    0.54244    0.73660   1.00
C3       0.28511    0.45756    0.74519   1.00
C4       0.21586    0.54150    0.76087   1.00
C4       0.21500    0.45850    0.75767   1.00
C2       0.25061    0.60352    0.74985   1.00
C2       0.25060    0.39648    0.74982   1.00
C3       0.28314    0.58310    0.73732   1.00
C3       0.28504    0.41690    0.74441   1.00
C3       0.21713    0.58306    0.76099   1.00
C3       0.21604    0.41694    0.75692   1.00
H1       0.30867    0.52888    0.72503   1.00
H1       0.31329    0.47112    0.74228   1.00
C5       0.18143    0.52065    0.77147   1.00
C5       0.17989    0.47935    0.76570   1.00
H1       0.30883    0.59886    0.72781   1.00
H1       0.31204    0.40114    0.73979   1.00
H1       0.19226    0.60053    0.76907   1.00
H1       0.19046    0.39947    0.76237   1.00
C6       0.14724    0.54234    0.79024   1.00
C6       0.14089    0.45766    0.76655   1.00
H2       0.13251    0.52358    0.81214   1.00
H2       0.15709    0.56737    0.80804   1.00
C6       0.11850    0.55724    0.75921   1.00
H2       0.11718    0.47642    0.75496   1.00
H2       0.14052    0.43263    0.74621   1.00
C6       0.13152    0.44276    0.80780   1.00
H2       0.10716    0.53274    0.74119   1.00
C6       0.08429    0.57832    0.77842   1.00
H2       0.13369    0.57760    0.73894   1.00
C6       0.09230    0.42168    0.80828   1.00
H2       0.15482    0.42240    0.81776   1.00
H2       0.13072    0.46726    0.82907   1.00
H2       0.06822    0.55822    0.79814   1.00
H2       0.09477    0.60380    0.79552   1.00
H2       0.06378    0.58898    0.75569   1.00
H2       0.06851    0.44178    0.79924   1.00
H2       0.09282    0.39620    0.78823   1.00
H2       0.08590    0.41102    0.83821   1.00
C4       -0.02067   0.24925    0.75020   1.00
C4       0.02067    0.25075    0.74980   1.00
C3       -0.04244   0.23660    0.71719   1.00
C3       0.04244    0.24519    0.71489   1.00
C4       -0.04150   0.26087    0.78414   1.00
C4       0.04150    0.25767    0.78500   1.00
C2       -0.10352   0.24985    0.74939   1.00
C2       0.10352    0.24982    0.74940   1.00
C3       -0.08310   0.23732    0.71686   1.00
C3       0.08310    0.24441    0.71496   1.00
C3       -0.08306   0.26099    0.78287   1.00
C3       0.08306    0.25692    0.78396   1.00
H1       -0.02888   0.22503    0.69133   1.00
H1       0.02888    0.24228    0.68671   1.00
C5       -0.02065   0.27147    0.81857   1.00
C5       0.02065    0.26570    0.82011   1.00
H1       -0.09886   0.22781    0.69117   1.00
H1       0.09886    0.23979    0.68796   1.00
H1       -0.10053   0.26907    0.80774   1.00
H1       0.10053    0.26237    0.80954   1.00
C6       -0.04234   0.29024    0.85276   1.00
C6       0.04234    0.26655    0.85911   1.00
H2       -0.02358   0.31214    0.86749   1.00
H2       -0.06737   0.30804    0.84291   1.00
C6       -0.05724   0.25921    0.88150   1.00
H2       0.02358    0.25496    0.88282   1.00
H2       0.06737    0.24621    0.85948   1.00
C6       0.05724    0.30780    0.86848   1.00
H2       -0.03274   0.24119    0.89284   1.00
C6       -0.07832   0.27842    0.91571   1.00
H2       -0.07760   0.23894    0.86631   1.00
C6       0.07832    0.30828    0.90770   1.00
H2       0.07760    0.31776    0.84518   1.00
H2       0.03274    0.32907    0.86928   1.00
H2       -0.05822   0.29814    0.93178   1.00
H2       -0.10380   0.29552    0.90523   1.00
H2       -0.08898   0.25569    0.93622   1.00
H2       0.05822    0.29924    0.93149   1.00
H2       0.10380    0.28823    0.90718   1.00
H2       0.08898    0.33821    0.91410   1.00
C4       0.52067    0.24925    0.74980   1.00
C4       0.47933    0.25075    0.75020   1.00
C3       0.54244    0.23660    0.78281   1.00
C3       0.45756    0.24519    0.78511   1.00
C4       0.54150    0.26087    0.71586   1.00
C4       0.45850    0.25767    0.71500   1.00
C2       0.60352    0.24985    0.75061   1.00
C2       0.39648    0.24982    0.75060   1.00
C3       0.58310    0.23732    0.78314   1.00
C3       0.41690    0.24441    0.78504   1.00
C3       0.58306    0.26099    0.71713   1.00
C3       0.41694    0.25692    0.71604   1.00
H1       0.52888    0.22503    0.80867   1.00
H1       0.47112    0.24228    0.81329   1.00
C5       0.52065    0.27147    0.68143   1.00
C5       0.47935    0.26570    0.67989   1.00
H1       0.59886    0.22781    0.80883   1.00
H1       0.40114    0.23979    0.81204   1.00
H1       0.60053    0.26907    0.69226   1.00
H1       0.39947    0.26237    0.69046   1.00
C6       0.54234    0.29024    0.64724   1.00
C6       0.45766    0.26655    0.64089   1.00
H2       0.52358    0.31214    0.63251   1.00
H2       0.56737    0.30804    0.65709   1.00
C6       0.55724    0.25921    0.61850   1.00
H2       0.47642    0.25496    0.61718   1.00
H2       0.43263    0.24621    0.64052   1.00
C6       0.44276    0.30780    0.63152   1.00
H2       0.53274    0.24119    0.60716   1.00
C6       0.57832    0.27842    0.58429   1.00
H2       0.57760    0.23894    0.63369   1.00
C6       0.42168    0.30828    0.59230   1.00
H2       0.42240    0.31776    0.65482   1.00
H2       0.46726    0.32907    0.63072   1.00
H2       0.55822    0.29814    0.56822   1.00
H2       0.60380    0.29552    0.59477   1.00
H2       0.58898    0.25569    0.56378   1.00
H2       0.44178    0.29924    0.56851   1.00
H2       0.39620    0.28823    0.59282   1.00
H2       0.41102    0.33821    0.58590   1.00
C4       0.25020    -0.02067   0.74925   1.00
C4       0.24980    0.02067    0.75075   1.00
C3       0.21719    -0.04244   0.73660   1.00
C3       0.21489    0.04244    0.74519   1.00
C4       0.28414    -0.04150   0.76087   1.00
C4       0.28500    0.04150    0.75767   1.00
C2       0.24939    -0.10352   0.74985   1.00
C2       0.24940    0.10352    0.74982   1.00
C3       0.21686    -0.08310   0.73732   1.00
C3       0.21496    0.08310    0.74441   1.00
C3       0.28287    -0.08306   0.76099   1.00
C3       0.28396    0.08306    0.75692   1.00
H1       0.19133    -0.02888   0.72503   1.00
H1       0.18671    0.02888    0.74228   1.00
C5       0.31857    -0.02065   0.77147   1.00
C5       0.32011    0.02065    0.76570   1.00
H1       0.19117    -0.09886   0.72781   1.00
H1       0.18796    0.09886    0.73979   1.00
H1       0.30774    -0.10053   0.76907   1.00
H1       0.30954    0.10053    0.76237   1.00
C6       0.35276    -0.04234   0.79024   1.00
C6       0.35911    0.04234    0.76655   1.00
H2       0.36749    -0.02358   0.81214   1.00
H2       0.34291    -0.06737   0.80804   1.00
C6       0.38150    -0.05724   0.75921   1.00
H2       0.38282    0.02358    0.75496   1.00
H2       0.35948    0.06737    0.74621   1.00
C6       0.36848    0.05724    0.80780   1.00
H2       0.39284    -0.03274   0.74119   1.00
C6       0.41571    -0.07832   0.77842   1.00
H2       0.36631    -0.07760   0.73894   1.00
C6       0.40770    0.07832    0.80828   1.00
H2       0.34518    0.07760    0.81776   1.00
H2       0.36928    0.03274    0.82907   1.00
H2       0.43178    -0.05822   0.79814   1.00
H2       0.40523    -0.10380   0.79552   1.00
H2       0.43622    -0.08898   0.75569   1.00
H2       0.43149    0.05822    0.79924   1.00
H2       0.40718    0.10380    0.78823   1.00
H2       0.41410    0.08898    0.83821   1.00
C4       0.24925    0.25020    0.47933   1.00
C4       0.25075    0.24980    0.52067   1.00
C3       0.23660    0.21719    0.45756   1.00
C3       0.24519    0.21489    0.54244   1.00
C4       0.26087    0.28414    0.45850   1.00
C4       0.25767    0.28500    0.54150   1.00
C2       0.24985    0.24939    0.39648   1.00
C2       0.24982    0.24940    0.60352   1.00
C3       0.23732    0.21686    0.41690   1.00
C3       0.24441    0.21496    0.58310   1.00
C3       0.26099    0.28287    0.41694   1.00
C3       0.25692    0.28396    0.58306   1.00
H1       0.22503    0.19133    0.47112   1.00
H1       0.24228    0.18671    0.52888   1.00
C5       0.27147    0.31857    0.47935   1.00
C5       0.26570    0.32011    0.52065   1.00
H1       0.22781    0.19117    0.40114   1.00
H1       0.23979    0.18796    0.59886   1.00
H1       0.26907    0.30774    0.39947   1.00
H1       0.26237    0.30954    0.60053   1.00
C6       0.29024    0.35276    0.45766   1.00
C6       0.26655    0.35911    0.54234   1.00
H2       0.31214    0.36749    0.47642   1.00
H2       0.30804    0.34291    0.43263   1.00
C6       0.25921    0.38150    0.44276   1.00
H2       0.25496    0.38282    0.52358   1.00
H2       0.24621    0.35948    0.56737   1.00
C6       0.30780    0.36848    0.55724   1.00
H2       0.24119    0.39284    0.46726   1.00
C6       0.27842    0.41571    0.42168   1.00
H2       0.23894    0.36631    0.42240   1.00
C6       0.30828    0.40770    0.57832   1.00
H2       0.31776    0.34518    0.57760   1.00
H2       0.32907    0.36928    0.53274   1.00
H2       0.29814    0.43178    0.44178   1.00
H2       0.29552    0.40523    0.39620   1.00
H2       0.25569    0.43622    0.41102   1.00
H2       0.29924    0.43149    0.55822   1.00
H2       0.28823    0.40718    0.60380   1.00
H2       0.33821    0.41410    0.58898   1.00
C4       0.24925    0.74980    0.52067   1.00
C4       0.25075    0.75020    0.47933   1.00
C3       0.23660    0.78281    0.54244   1.00
C3       0.24519    0.78511    0.45756   1.00
C4       0.26087    0.71586    0.54150   1.00
C4       0.25767    0.71500    0.45850   1.00
C2       0.24985    0.75061    0.60352   1.00
C2       0.24982    0.75060    0.39648   1.00
C3       0.23732    0.78314    0.58310   1.00
C3       0.24441    0.78504    0.41690   1.00
C3       0.26099    0.71713    0.58306   1.00
C3       0.25692    0.71604    0.41694   1.00
H1       0.22503    0.80867    0.52888   1.00
H1       0.24228    0.81329    0.47112   1.00
C5       0.27147    0.68143    0.52065   1.00
C5       0.26570    0.67989    0.47935   1.00
H1       0.22781    0.80883    0.59886   1.00
H1       0.23979    0.81204    0.40114   1.00
H1       0.26907    0.69226    0.60053   1.00
H1       0.26237    0.69046    0.39947   1.00
C6       0.29024    0.64724    0.54234   1.00
C6       0.26655    0.64089    0.45766   1.00
H2       0.31214    0.63251    0.52358   1.00
H2       0.30804    0.65709    0.56737   1.00
C6       0.25921    0.61850    0.55724   1.00
H2       0.25496    0.61718    0.47642   1.00
H2       0.24621    0.64052    0.43263   1.00
C6       0.30780    0.63152    0.44276   1.00
H2       0.24119    0.60716    0.53274   1.00
C6       0.27842    0.58429    0.57832   1.00
H2       0.23894    0.63369    0.57760   1.00
C6       0.30828    0.59230    0.42168   1.00
H2       0.31776    0.65482    0.42240   1.00
H2       0.32907    0.63072    0.46726   1.00
H2       0.29814    0.56822    0.55822   1.00
H2       0.29552    0.59477    0.60380   1.00
H2       0.25569    0.56378    0.58898   1.00
H2       0.29924    0.56851    0.44178   1.00
H2       0.28823    0.59282    0.39620   1.00
H2       0.33821    0.58590    0.41102   1.00
C4       0.24980    1.02067    0.24925   1.00
C4       0.25020    0.97933    0.25075   1.00
C3       0.28281    1.04244    0.23660   1.00
C3       0.28511    0.95756    0.24519   1.00
C4       0.21586    1.04150    0.26087   1.00
C4       0.21500    0.95850    0.25767   1.00
C2       0.25061    1.10352    0.24985   1.00
C2       0.25060    0.89648    0.24982   1.00
C3       0.28314    1.08310    0.23732   1.00
C3       0.28504    0.91690    0.24441   1.00
C3       0.21713    1.08306    0.26099   1.00
C3       0.21604    0.91694    0.25692   1.00
H1       0.30867    1.02888    0.22503   1.00
H1       0.31329    0.97112    0.24228   1.00
C5       0.18143    1.02065    0.27147   1.00
C5       0.17989    0.97935    0.26570   1.00
H1       0.30883    1.09886    0.22781   1.00
H1       0.31204    0.90114    0.23979   1.00
H1       0.19226    1.10053    0.26907   1.00
H1       0.19046    0.89947    0.26237   1.00
C6       0.14724    1.04234    0.29024   1.00
C6       0.14089    0.95766    0.26655   1.00
H2       0.13251    1.02358    0.31214   1.00
H2       0.15709    1.06737    0.30804   1.00
C6       0.11850    1.05724    0.25921   1.00
H2       0.11718    0.97642    0.25496   1.00
H2       0.14052    0.93263    0.24621   1.00
C6       0.13152    0.94276    0.30780   1.00
H2       0.10716    1.03274    0.24119   1.00
C6       0.08429    1.07832    0.27842   1.00
H2       0.13369    1.07760    0.23894   1.00
C6       0.09230    0.92168    0.30828   1.00
H2       0.15482    0.92240    0.31776   1.00
H2       0.13072    0.96726    0.32907   1.00
H2       0.06822    1.05822    0.29814   1.00
H2       0.09477    1.10380    0.29552   1.00
H2       0.06378    1.08898    0.25569   1.00
H2       0.06851    0.94178    0.29924   1.00
H2       0.09282    0.89620    0.28823   1.00
H2       0.08590    0.91102    0.33821   1.00
C4       -0.02067   0.74925    0.25020   1.00
C4       0.02067    0.75075    0.24980   1.00
C3       -0.04244   0.73660    0.21719   1.00
C3       0.04244    0.74519    0.21489   1.00
C4       -0.04150   0.76087    0.28414   1.00
C4       0.04150    0.75767    0.28500   1.00
C2       -0.10352   0.74985    0.24939   1.00
C2       0.10352    0.74982    0.24940   1.00
C3       -0.08310   0.73732    0.21686   1.00
C3       0.08310    0.74441    0.21496   1.00
C3       -0.08306   0.76099    0.28287   1.00
C3       0.08306    0.75692    0.28396   1.00
H1       -0.02888   0.72503    0.19133   1.00
H1       0.02888    0.74228    0.18671   1.00
C5       -0.02065   0.77147    0.31857   1.00
C5       0.02065    0.76570    0.32011   1.00
H1       -0.09886   0.72781    0.19117   1.00
H1       0.09886    0.73979    0.18796   1.00
H1       -0.10053   0.76907    0.30774   1.00
H1       0.10053    0.76237    0.30954   1.00
C6       -0.04234   0.79024    0.35276   1.00
C6       0.04234    0.76655    0.35911   1.00
H2       -0.02358   0.81214    0.36749   1.00
H2       -0.06737   0.80804    0.34291   1.00
C6       -0.05724   0.75921    0.38150   1.00
H2       0.02358    0.75496    0.38282   1.00
H2       0.06737    0.74621    0.35948   1.00
C6       0.05724    0.80780    0.36848   1.00
H2       -0.03274   0.74119    0.39284   1.00
C6       -0.07832   0.77842    0.41571   1.00
H2       -0.07760   0.73894    0.36631   1.00
C6       0.07832    0.80828    0.40770   1.00
H2       0.07760    0.81776    0.34518   1.00
H2       0.03274    0.82907    0.36928   1.00
H2       -0.05822   0.79814    0.43178   1.00
H2       -0.10380   0.79552    0.40523   1.00
H2       -0.08898   0.75569    0.43622   1.00
H2       0.05822    0.79924    0.43149   1.00
H2       0.10380    0.78823    0.40718   1.00
H2       0.08898    0.83821    0.41410   1.00
C4       0.52067    0.74925    0.24980   1.00
C4       0.47933    0.75075    0.25020   1.00
C3       0.54244    0.73660    0.28281   1.00
C3       0.45756    0.74519    0.28511   1.00
C4       0.54150    0.76087    0.21586   1.00
C4       0.45850    0.75767    0.21500   1.00
C2       0.60352    0.74985    0.25061   1.00
C2       0.39648    0.74982    0.25060   1.00
C3       0.58310    0.73732    0.28314   1.00
C3       0.41690    0.74441    0.28504   1.00
C3       0.58306    0.76099    0.21713   1.00
C3       0.41694    0.75692    0.21604   1.00
H1       0.52888    0.72503    0.30867   1.00
H1       0.47112    0.74228    0.31329   1.00
C5       0.52065    0.77147    0.18143   1.00
C5       0.47935    0.76570    0.17989   1.00
H1       0.59886    0.72781    0.30883   1.00
H1       0.40114    0.73979    0.31204   1.00
H1       0.60053    0.76907    0.19226   1.00
H1       0.39947    0.76237    0.19046   1.00
C6       0.54234    0.79024    0.14724   1.00
C6       0.45766    0.76655    0.14089   1.00
H2       0.52358    0.81214    0.13251   1.00
H2       0.56737    0.80804    0.15709   1.00
C6       0.55724    0.75921    0.11850   1.00
H2       0.47642    0.75496    0.11718   1.00
H2       0.43263    0.74621    0.14052   1.00
C6       0.44276    0.80780    0.13152   1.00
H2       0.53274    0.74119    0.10716   1.00
C6       0.57832    0.77842    0.08429   1.00
H2       0.57760    0.73894    0.13369   1.00
C6       0.42168    0.80828    0.09230   1.00
H2       0.42240    0.81776    0.15482   1.00
H2       0.46726    0.82907    0.13072   1.00
H2       0.55822    0.79814    0.06822   1.00
H2       0.60380    0.79552    0.09477   1.00
H2       0.58898    0.75569    0.06378   1.00
H2       0.44178    0.79924    0.06851   1.00
H2       0.39620    0.78823    0.09282   1.00
H2       0.41102    0.83821    0.08590   1.00
C4       0.25020    0.47933    0.24925   1.00
C4       0.24980    0.52067    0.25075   1.00
C3       0.21719    0.45756    0.23660   1.00
C3       0.21489    0.54244    0.24519   1.00
C4       0.28414    0.45850    0.26087   1.00
C4       0.28500    0.54150    0.25767   1.00
C2       0.24939    0.39648    0.24985   1.00
C2       0.24940    0.60352    0.24982   1.00
C3       0.21686    0.41690    0.23732   1.00
C3       0.21496    0.58310    0.24441   1.00
C3       0.28287    0.41694    0.26099   1.00
C3       0.28396    0.58306    0.25692   1.00
H1       0.19133    0.47112    0.22503   1.00
H1       0.18671    0.52888    0.24228   1.00
C5       0.31857    0.47935    0.27147   1.00
C5       0.32011    0.52065    0.26570   1.00
H1       0.19117    0.40114    0.22781   1.00
H1       0.18796    0.59886    0.23979   1.00
H1       0.30774    0.39947    0.26907   1.00
H1       0.30954    0.60053    0.26237   1.00
C6       0.35276    0.45766    0.29024   1.00
C6       0.35911    0.54234    0.26655   1.00
H2       0.36749    0.47642    0.31214   1.00
H2       0.34291    0.43263    0.30804   1.00
C6       0.38150    0.44276    0.25921   1.00
H2       0.38282    0.52358    0.25496   1.00
H2       0.35948    0.56737    0.24621   1.00
C6       0.36848    0.55724    0.30780   1.00
H2       0.39284    0.46726    0.24119   1.00
C6       0.41571    0.42168    0.27842   1.00
H2       0.36631    0.42240    0.23894   1.00
C6       0.40770    0.57832    0.30828   1.00
H2       0.34518    0.57760    0.31776   1.00
H2       0.36928    0.53274    0.32907   1.00
H2       0.43178    0.44178    0.29814   1.00
H2       0.40523    0.39620    0.29552   1.00
H2       0.43622    0.41102    0.25569   1.00
H2       0.43149    0.55822    0.29924   1.00
H2       0.40718    0.60380    0.28823   1.00
H2       0.41410    0.58898    0.33821   1.00
C4       0.24925    0.75020    -0.02067   1.00
C4       0.25075    0.74980    0.02067   1.00
C3       0.23660    0.71719    -0.04244   1.00
C3       0.24519    0.71489    0.04244   1.00
C4       0.26087    0.78414    -0.04150   1.00
C4       0.25767    0.78500    0.04150   1.00
C2       0.24985    0.74939    -0.10352   1.00
C2       0.24982    0.74940    0.10352   1.00
C3       0.23732    0.71686    -0.08310   1.00
C3       0.24441    0.71496    0.08310   1.00
C3       0.26099    0.78287    -0.08306   1.00
C3       0.25692    0.78396    0.08306   1.00
H1       0.22503    0.69133    -0.02888   1.00
H1       0.24228    0.68671    0.02888   1.00
C5       0.27147    0.81857    -0.02065   1.00
C5       0.26570    0.82011    0.02065   1.00
H1       0.22781    0.69117    -0.09886   1.00
H1       0.23979    0.68796    0.09886   1.00
H1       0.26907    0.80774    -0.10053   1.00
H1       0.26237    0.80954    0.10053   1.00
C6       0.29024    0.85276    -0.04234   1.00
C6       0.26655    0.85911    0.04234   1.00
H2       0.31214    0.86749    -0.02358   1.00
H2       0.30804    0.84291    -0.06737   1.00
C6       0.25921    0.88150    -0.05724   1.00
H2       0.25496    0.88282    0.02358   1.00
H2       0.24621    0.85948    0.06737   1.00
C6       0.30780    0.86848    0.05724   1.00
H2       0.24119    0.89284    -0.03274   1.00
C6       0.27842    0.91571    -0.07832   1.00
H2       0.23894    0.86631    -0.07760   1.00
C6       0.30828    0.90770    0.07832   1.00
H2       0.31776    0.84518    0.07760   1.00
H2       0.32907    0.86928    0.03274   1.00
H2       0.29814    0.93178    -0.05822   1.00
H2       0.29552    0.90523    -0.10380   1.00
H2       0.25569    0.93622    -0.08898   1.00
H2       0.29924    0.93149    0.05822   1.00
H2       0.28823    0.90718    0.10380   1.00
H2       0.33821    0.91410    0.08898   1.00
C4       0.74925    0.24980    0.52067   1.00
C4       0.75075    0.25020    0.47933   1.00
C3       0.73660    0.28281    0.54244   1.00
C3       0.74519    0.28511    0.45756   1.00
C4       0.76087    0.21586    0.54150   1.00
C4       0.75767    0.21500    0.45850   1.00
C2       0.74985    0.25061    0.60352   1.00
C2       0.74982    0.25060    0.39648   1.00
C3       0.73732    0.28314    0.58310   1.00
C3       0.74441    0.28504    0.41690   1.00
C3       0.76099    0.21713    0.58306   1.00
C3       0.75692    0.21604    0.41694   1.00
H1       0.72503    0.30867    0.52888   1.00
H1       0.74228    0.31329    0.47112   1.00
C5       0.77147    0.18143    0.52065   1.00
C5       0.76570    0.17989    0.47935   1.00
H1       0.72781    0.30883    0.59886   1.00
H1       0.73979    0.31204    0.40114   1.00
H1       0.76907    0.19226    0.60053   1.00
H1       0.76237    0.19046    0.39947   1.00
C6       0.79024    0.14724    0.54234   1.00
C6       0.76655    0.14089    0.45766   1.00
H2       0.81214    0.13251    0.52358   1.00
H2       0.80804    0.15709    0.56737   1.00
C6       0.75921    0.11850    0.55724   1.00
H2       0.75496    0.11718    0.47642   1.00
H2       0.74621    0.14052    0.43263   1.00
C6       0.80780    0.13152    0.44276   1.00
H2       0.74119    0.10716    0.53274   1.00
C6       0.77842    0.08429    0.57832   1.00
H2       0.73894    0.13369    0.57760   1.00
C6       0.80828    0.09230    0.42168   1.00
H2       0.81776    0.15482    0.42240   1.00
H2       0.82907    0.13072    0.46726   1.00
H2       0.79814    0.06822    0.55822   1.00
H2       0.79552    0.09477    0.60380   1.00
H2       0.75569    0.06378    0.58898   1.00
H2       0.79924    0.06851    0.44178   1.00
H2       0.78823    0.09282    0.39620   1.00
H2       0.83821    0.08590    0.41102   1.00
C4       0.74980    0.52067    0.24925   1.00
C4       0.75020    0.47933    0.25075   1.00
C3       0.78281    0.54244    0.23660   1.00
C3       0.78511    0.45756    0.24519   1.00
C4       0.71586    0.54150    0.26087   1.00
C4       0.71500    0.45850    0.25767   1.00
C2       0.75061    0.60352    0.24985   1.00
C2       0.75060    0.39648    0.24982   1.00
C3       0.78314    0.58310    0.23732   1.00
C3       0.78504    0.41690    0.24441   1.00
C3       0.71713    0.58306    0.26099   1.00
C3       0.71604    0.41694    0.25692   1.00
H1       0.80867    0.52888    0.22503   1.00
H1       0.81329    0.47112    0.24228   1.00
C5       0.68143    0.52065    0.27147   1.00
C5       0.67989    0.47935    0.26570   1.00
H1       0.80883    0.59886    0.22781   1.00
H1       0.81204    0.40114    0.23979   1.00
H1       0.69226    0.60053    0.26907   1.00
H1       0.69046    0.39947    0.26237   1.00
C6       0.64724    0.54234    0.29024   1.00
C6       0.64089    0.45766    0.26655   1.00
H2       0.63251    0.52358    0.31214   1.00
H2       0.65709    0.56737    0.30804   1.00
C6       0.61850    0.55724    0.25921   1.00
H2       0.61718    0.47642    0.25496   1.00
H2       0.64052    0.43263    0.24621   1.00
C6       0.63152    0.44276    0.30780   1.00
H2       0.60716    0.53274    0.24119   1.00
C6       0.58429    0.57832    0.27842   1.00
H2       0.63369    0.57760    0.23894   1.00
C6       0.59230    0.42168    0.30828   1.00
H2       0.65482    0.42240    0.31776   1.00
H2       0.63072    0.46726    0.32907   1.00
H2       0.56822    0.55822    0.29814   1.00
H2       0.59477    0.60380    0.29552   1.00
H2       0.56378    0.58898    0.25569   1.00
H2       0.56851    0.44178    0.29924   1.00
H2       0.59282    0.39620    0.28823   1.00
H2       0.58590    0.41102    0.33821   1.00
C4       0.47933    0.24925    0.25020   1.00
C4       0.52067    0.25075    0.24980   1.00
C3       0.45756    0.23660    0.21719   1.00
C3       0.54244    0.24519    0.21489   1.00
C4       0.45850    0.26087    0.28414   1.00
C4       0.54150    0.25767    0.28500   1.00
C2       0.39648    0.24985    0.24939   1.00
C2       0.60352    0.24982    0.24940   1.00
C3       0.41690    0.23732    0.21686   1.00
C3       0.58310    0.24441    0.21496   1.00
C3       0.41694    0.26099    0.28287   1.00
C3       0.58306    0.25692    0.28396   1.00
H1       0.47112    0.22503    0.19133   1.00
H1       0.52888    0.24228    0.18671   1.00
C5       0.47935    0.27147    0.31857   1.00
C5       0.52065    0.26570    0.32011   1.00
H1       0.40114    0.22781    0.19117   1.00
H1       0.59886    0.23979    0.18796   1.00
H1       0.39947    0.26907    0.30774   1.00
H1       0.60053    0.26237    0.30954   1.00
C6       0.45766    0.29024    0.35276   1.00
C6       0.54234    0.26655    0.35911   1.00
H2       0.47642    0.31214    0.36749   1.00
H2       0.43263    0.30804    0.34291   1.00
C6       0.44276    0.25921    0.38150   1.00
H2       0.52358    0.25496    0.38282   1.00
H2       0.56737    0.24621    0.35948   1.00
C6       0.55724    0.30780    0.36848   1.00
H2       0.46726    0.24119    0.39284   1.00
C6       0.42168    0.27842    0.41571   1.00
H2       0.42240    0.23894    0.36631   1.00
C6       0.57832    0.30828    0.40770   1.00
H2       0.57760    0.31776    0.34518   1.00
H2       0.53274    0.32907    0.36928   1.00
H2       0.44178    0.29814    0.43178   1.00
H2       0.39620    0.29552    0.40523   1.00
H2       0.41102    0.25569    0.43622   1.00
H2       0.55822    0.29924    0.43149   1.00
H2       0.60380    0.28823    0.40718   1.00
H2       0.58898    0.33821    0.41410   1.00
C4       1.02067    0.24925    0.24980   1.00
C4       0.97933    0.25075    0.25020   1.00
C3       1.04244    0.23660    0.28281   1.00
C3       0.95756    0.24519    0.28511   1.00
C4       1.04150    0.26087    0.21586   1.00
C4       0.95850    0.25767    0.21500   1.00
C2       1.10352    0.24985    0.25061   1.00
C2       0.89648    0.24982    0.25060   1.00
C3       1.08310    0.23732    0.28314   1.00
C3       0.91690    0.24441    0.28504   1.00
C3       1.08306    0.26099    0.21713   1.00
C3       0.91694    0.25692    0.21604   1.00
H1       1.02888    0.22503    0.30867   1.00
H1       0.97112    0.24228    0.31329   1.00
C5       1.02065    0.27147    0.18143   1.00
C5       0.97935    0.26570    0.17989   1.00
H1       1.09886    0.22781    0.30883   1.00
H1       0.90114    0.23979    0.31204   1.00
H1       1.10053    0.26907    0.19226   1.00
H1       0.89947    0.26237    0.19046   1.00
C6       1.04234    0.29024    0.14724   1.00
C6       0.95766    0.26655    0.14089   1.00
H2       1.02358    0.31214    0.13251   1.00
H2       1.06737    0.30804    0.15709   1.00
C6       1.05724    0.25921    0.11850   1.00
H2       0.97642    0.25496    0.11718   1.00
H2       0.93263    0.24621    0.14052   1.00
C6       0.94276    0.30780    0.13152   1.00
H2       1.03274    0.24119    0.10716   1.00
C6       1.07832    0.27842    0.08429   1.00
H2       1.07760    0.23894    0.13369   1.00
C6       0.92168    0.30828    0.09230   1.00
H2       0.92240    0.31776    0.15482   1.00
H2       0.96726    0.32907    0.13072   1.00
H2       1.05822    0.29814    0.06822   1.00
H2       1.10380    0.29552    0.09477   1.00
H2       1.08898    0.25569    0.06378   1.00
H2       0.94178    0.29924    0.06851   1.00
H2       0.89620    0.28823    0.09282   1.00
H2       0.91102    0.33821    0.08590   1.00
C4       0.75020    -0.02067   0.24925   1.00
C4       0.74980    0.02067    0.25075   1.00
C3       0.71719    -0.04244   0.23660   1.00
C3       0.71489    0.04244    0.24519   1.00
C4       0.78414    -0.04150   0.26087   1.00
C4       0.78500    0.04150    0.25767   1.00
C2       0.74939    -0.10352   0.24985   1.00
C2       0.74940    0.10352    0.24982   1.00
C3       0.71686    -0.08310   0.23732   1.00
C3       0.71496    0.08310    0.24441   1.00
C3       0.78287    -0.08306   0.26099   1.00
C3       0.78396    0.08306    0.25692   1.00
H1       0.69133    -0.02888   0.22503   1.00
H1       0.68671    0.02888    0.24228   1.00
C5       0.81857    -0.02065   0.27147   1.00
C5       0.82011    0.02065    0.26570   1.00
H1       0.69117    -0.09886   0.22781   1.00
H1       0.68796    0.09886    0.23979   1.00
H1       0.80774    -0.10053   0.26907   1.00
H1       0.80954    0.10053    0.26237   1.00
C6       0.85276    -0.04234   0.29024   1.00
C6       0.85911    0.04234    0.26655   1.00
H2       0.86749    -0.02358   0.31214   1.00
H2       0.84291    -0.06737   0.30804   1.00
C6       0.88150    -0.05724   0.25921   1.00
H2       0.88282    0.02358    0.25496   1.00
H2       0.85948    0.06737    0.24621   1.00
C6       0.86848    0.05724    0.30780   1.00
H2       0.89284    -0.03274   0.24119   1.00
C6       0.91571    -0.07832   0.27842   1.00
H2       0.86631    -0.07760   0.23894   1.00
C6       0.90770    0.07832    0.30828   1.00
H2       0.84518    0.07760    0.31776   1.00
H2       0.86928    0.03274    0.32907   1.00
H2       0.93178    -0.05822   0.29814   1.00
H2       0.90523    -0.10380   0.29552   1.00
H2       0.93622    -0.08898   0.25569   1.00
H2       0.93149    0.05822    0.29924   1.00
H2       0.90718    0.10380    0.28823   1.00
H2       0.91410    0.08898    0.33821   1.00
C4       0.74925    0.25020    -0.02067   1.00
C4       0.75075    0.24980    0.02067   1.00
C3       0.73660    0.21719    -0.04244   1.00
C3       0.74519    0.21489    0.04244   1.00
C4       0.76087    0.28414    -0.04150   1.00
C4       0.75767    0.28500    0.04150   1.00
C2       0.74985    0.24939    -0.10352   1.00
C2       0.74982    0.24940    0.10352   1.00
C3       0.73732    0.21686    -0.08310   1.00
C3       0.74441    0.21496    0.08310   1.00
C3       0.76099    0.28287    -0.08306   1.00
C3       0.75692    0.28396    0.08306   1.00
H1       0.72503    0.19133    -0.02888   1.00
H1       0.74228    0.18671    0.02888   1.00
C5       0.77147    0.31857    -0.02065   1.00
C5       0.76570    0.32011    0.02065   1.00
H1       0.72781    0.19117    -0.09886   1.00
H1       0.73979    0.18796    0.09886   1.00
H1       0.76907    0.30774    -0.10053   1.00
H1       0.76237    0.30954    0.10053   1.00
C6       0.79024    0.35276    -0.04234   1.00
C6       0.76655    0.35911    0.04234   1.00
H2       0.81214    0.36749    -0.02358   1.00
H2       0.80804    0.34291    -0.06737   1.00
C6       0.75921    0.38150    -0.05724   1.00
H2       0.75496    0.38282    0.02358   1.00
H2       0.74621    0.35948    0.06737   1.00
C6       0.80780    0.36848    0.05724   1.00
H2       0.74119    0.39284    -0.03274   1.00
C6       0.77842    0.41571    -0.07832   1.00
H2       0.73894    0.36631    -0.07760   1.00
C6       0.80828    0.40770    0.07832   1.00
H2       0.81776    0.34518    0.07760   1.00
H2       0.82907    0.36928    0.03274   1.00
H2       0.79814    0.43178    -0.05822   1.00
H2       0.79552    0.40523    -0.10380   1.00
H2       0.75569    0.43622    -0.08898   1.00
H2       0.79924    0.43149    0.05822   1.00
H2       0.78823    0.40718    0.10380   1.00
H2       0.83821    0.41410    0.08898   1.00
C4       0.99925    0.99980    1.27067   1.00
C4       1.00075    1.00020    1.22933   1.00
C3       0.98660    1.03281    1.29244   1.00
C3       0.99519    1.03511    1.20756   1.00
C4       1.01087    0.96586    1.29150   1.00
C4       1.00767    0.96500    1.20850   1.00
C2       0.99985    1.00061    1.35352   1.00
C2       0.99982    1.00060    1.14648   1.00
C3       0.98732    1.03314    1.33310   1.00
C3       0.99441    1.03504    1.16690   1.00
C3       1.01099    0.96713    1.33306   1.00
C3       1.00692    0.96604    1.16694   1.00
H1       0.97503    1.05867    1.27888   1.00
H1       0.99228    1.06329    1.22112   1.00
C5       1.02147    0.93143    1.27065   1.00
C5       1.01570    0.92989    1.22935   1.00
H1       0.97781    1.05883    1.34886   1.00
H1       0.98979    1.06204    1.15114   1.00
H1       1.01907    0.94226    1.35053   1.00
H1       1.01237    0.94046    1.14947   1.00
C6       1.04024    0.89724    1.29234   1.00
C6       1.01655    0.89089    1.20766   1.00
H2       1.06214    0.88251    1.27358   1.00
H2       1.05804    0.90709    1.31737   1.00
C6       1.00921    0.86850    1.30724   1.00
H2       1.00496    0.86718    1.22642   1.00
H2       0.99621    0.89052    1.18263   1.00
C6       1.05780    0.88152    1.19276   1.00
H2       0.99119    0.85716    1.28274   1.00
C6       1.02842    0.83429    1.32832   1.00
H2       0.98894    0.88369    1.32760   1.00
C6       1.05828    0.84230    1.17168   1.00
H2       1.06776    0.90482    1.17240   1.00
H2       1.07907    0.88072    1.21726   1.00
H2       1.04814    0.81822    1.30822   1.00
H2       1.04552    0.84477    1.35380   1.00
H2       1.00569    0.81378    1.33898   1.00
H2       1.04924    0.81851    1.19178   1.00
H2       1.03823    0.84282    1.14620   1.00
H2       1.08821    0.83590    1.16102   1.00
C4       0.99980    1.27067    0.99925   1.00
C4       1.00020    1.22933    1.00075   1.00
C3       1.03281    1.29244    0.98660   1.00
C3       1.03511    1.20756    0.99519   1.00
C4       0.96586    1.29150    1.01087   1.00
C4       0.96500    1.20850    1.00767   1.00
C2       1.00061    1.35352    0.99985   1.00
C2       1.00060    1.14648    0.99982   1.00
C3       1.03314    1.33310    0.98732   1.00
C3       1.03504    1.16690    0.99441   1.00
C3       0.96713    1.33306    1.01099   1.00
C3       0.96604    1.16694    1.00692   1.00
H1       1.05867    1.27888    0.97503   1.00
H1       1.06329    1.22112    0.99228   1.00
C5       0.93143    1.27065    1.02147   1.00
C5       0.92989    1.22935    1.01570   1.00
H1       1.05883    1.34886    0.97781   1.00
H1       1.06204    1.15114    0.98979   1.00
H1       0.94226    1.35053    1.01907   1.00
H1       0.94046    1.14947    1.01237   1.00
C6       0.89724    1.29234    1.04024   1.00
C6       0.89089    1.20766    1.01655   1.00
H2       0.88251    1.27358    1.06214   1.00
H2       0.90709    1.31737    1.05804   1.00
C6       0.86850    1.30724    1.00921   1.00
H2       0.86718    1.22642    1.00496   1.00
H2       0.89052    1.18263    0.99621   1.00
C6       0.88152    1.19276    1.05780   1.00
H2       0.85716    1.28274    0.99119   1.00
C6       0.83429    1.32832    1.02842   1.00
H2       0.88369    1.32760    0.98894   1.00
C6       0.84230    1.17168    1.05828   1.00
H2       0.90482    1.17240    1.06776   1.00
H2       0.88072    1.21726    1.07907   1.00
H2       0.81822    1.30822    1.04814   1.00
H2       0.84477    1.35380    1.04552   1.00
H2       0.81378    1.33898    1.00569   1.00
H2       0.81851    1.19178    1.04924   1.00
H2       0.84282    1.14620    1.03823   1.00
H2       0.83590    1.16102    1.08821   1.00
C4       0.72933    0.99925    1.00020   1.00
C4       0.77067    1.00075    0.99980   1.00
C3       0.70756    0.98660    0.96719   1.00
C3       0.79244    0.99519    0.96489   1.00
C4       0.70850    1.01087    1.03414   1.00
C4       0.79150    1.00767    1.03500   1.00
C2       0.64648    0.99985    0.99939   1.00
C2       0.85352    0.99982    0.99940   1.00
C3       0.66690    0.98732    0.96686   1.00
C3       0.83310    0.99441    0.96496   1.00
C3       0.66694    1.01099    1.03287   1.00
C3       0.83306    1.00692    1.03396   1.00
H1       0.72112    0.97503    0.94133   1.00
H1       0.77888    0.99228    0.93671   1.00
C5       0.72935    1.02147    1.06857   1.00
C5       0.77065    1.01570    1.07011   1.00
H1       0.65114    0.97781    0.94117   1.00
H1       0.84886    0.98979    0.93796   1.00
H1       0.64947    1.01907    1.05774   1.00
H1       0.85053    1.01237    1.05954   1.00
C6       0.70766    1.04024    1.10276   1.00
C6       0.79234    1.01655    1.10911   1.00
H2       0.72642    1.06214    1.11749   1.00
H2       0.68263    1.05804    1.09291   1.00
C6       0.69276    1.00921    1.13150   1.00
H2       0.77358    1.00496    1.13282   1.00
H2       0.81737    0.99621    1.10948   1.00
C6       0.80724    1.05780    1.11848   1.00
H2       0.71726    0.99119    1.14284   1.00
C6       0.67168    1.02842    1.16571   1.00
H2       0.67240    0.98894    1.11631   1.00
C6       0.82832    1.05828    1.15770   1.00
H2       0.82760    1.06776    1.09518   1.00
H2       0.78274    1.07907    1.11928   1.00
H2       0.69178    1.04814    1.18178   1.00
H2       0.64620    1.04552    1.15523   1.00
H2       0.66102    1.00569    1.18622   1.00
H2       0.80822    1.04924    1.18149   1.00
H2       0.85380    1.03823    1.15718   1.00
H2       0.83898    1.08821    1.16410   1.00
C4       1.27067    0.99925    0.99980   1.00
C4       1.22933    1.00075    1.00020   1.00
C3       1.29244    0.98660    1.03281   1.00
C3       1.20756    0.99519    1.03511   1.00
C4       1.29150    1.01087    0.96586   1.00
C4       1.20850    1.00767    0.96500   1.00
C2       1.35352    0.99985    1.00061   1.00
C2       1.14648    0.99982    1.00060   1.00
C3       1.33310    0.98732    1.03314   1.00
C3       1.16690    0.99441    1.03504   1.00
C3       1.33306    1.01099    0.96713   1.00
C3       1.16694    1.00692    0.96604   1.00
H1       1.27888    0.97503    1.05867   1.00
H1       1.22112    0.99228    1.06329   1.00
C5       1.27065    1.02147    0.93143   1.00
C5       1.22935    1.01570    0.92989   1.00
H1       1.34886    0.97781    1.05883   1.00
H1       1.15114    0.98979    1.06204   1.00
H1       1.35053    1.01907    0.94226   1.00
H1       1.14947    1.01237    0.94046   1.00
C6       1.29234    1.04024    0.89724   1.00
C6       1.20766    1.01655    0.89089   1.00
H2       1.27358    1.06214    0.88251   1.00
H2       1.31737    1.05804    0.90709   1.00
C6       1.30724    1.00921    0.86850   1.00
H2       1.22642    1.00496    0.86718   1.00
H2       1.18263    0.99621    0.89052   1.00
C6       1.19276    1.05780    0.88152   1.00
H2       1.28274    0.99119    0.85716   1.00
C6       1.32832    1.02842    0.83429   1.00
H2       1.32760    0.98894    0.88369   1.00
C6       1.17168    1.05828    0.84230   1.00
H2       1.17240    1.06776    0.90482   1.00
H2       1.21726    1.07907    0.88072   1.00
H2       1.30822    1.04814    0.81822   1.00
H2       1.35380    1.04552    0.84477   1.00
H2       1.33898    1.00569    0.81378   1.00
H2       1.19178    1.04924    0.81851   1.00
H2       1.14620    1.03823    0.84282   1.00
H2       1.16102    1.08821    0.83590   1.00
C4       1.00020    0.72933    0.99925   1.00
C4       0.99980    0.77067    1.00075   1.00
C3       0.96719    0.70756    0.98660   1.00
C3       0.96489    0.79244    0.99519   1.00
C4       1.03414    0.70850    1.01087   1.00
C4       1.03500    0.79150    1.00767   1.00
C2       0.99939    0.64648    0.99985   1.00
C2       0.99940    0.85352    0.99982   1.00
C3       0.96686    0.66690    0.98732   1.00
C3       0.96496    0.83310    0.99441   1.00
C3       1.03287    0.66694    1.01099   1.00
C3       1.03396    0.83306    1.00692   1.00
H1       0.94133    0.72112    0.97503   1.00
H1       0.93671    0.77888    0.99228   1.00
C5       1.06857    0.72935    1.02147   1.00
C5       1.07011    0.77065    1.01570   1.00
H1       0.94117    0.65114    0.97781   1.00
H1       0.93796    0.84886    0.98979   1.00
H1       1.05774    0.64947    1.01907   1.00
H1       1.05954    0.85053    1.01237   1.00
C6       1.10276    0.70766    1.04024   1.00
C6       1.10911    0.79234    1.01655   1.00
H2       1.11749    0.72642    1.06214   1.00
H2       1.09291    0.68263    1.05804   1.00
C6       1.13150    0.69276    1.00921   1.00
H2       1.13282    0.77358    1.00496   1.00
H2       1.10948    0.81737    0.99621   1.00
C6       1.11848    0.80724    1.05780   1.00
H2       1.14284    0.71726    0.99119   1.00
C6       1.16571    0.67168    1.02842   1.00
H2       1.11631    0.67240    0.98894   1.00
C6       1.15770    0.82832    1.05828   1.00
H2       1.09518    0.82760    1.06776   1.00
H2       1.11928    0.78274    1.07907   1.00
H2       1.18178    0.69178    1.04814   1.00
H2       1.15523    0.64620    1.04552   1.00
H2       1.18622    0.66102    1.00569   1.00
H2       1.18149    0.80822    1.04924   1.00
H2       1.15718    0.85380    1.03823   1.00
H2       1.16410    0.83898    1.08821   1.00
C4       0.99925    1.00020    0.72933   1.00
C4       1.00075    0.99980    0.77067   1.00
C3       0.98660    0.96719    0.70756   1.00
C3       0.99519    0.96489    0.79244   1.00
C4       1.01087    1.03414    0.70850   1.00
C4       1.00767    1.03500    0.79150   1.00
C2       0.99985    0.99939    0.64648   1.00
C2       0.99982    0.99940    0.85352   1.00
C3       0.98732    0.96686    0.66690   1.00
C3       0.99441    0.96496    0.83310   1.00
C3       1.01099    1.03287    0.66694   1.00
C3       1.00692    1.03396    0.83306   1.00
H1       0.97503    0.94133    0.72112   1.00
H1       0.99228    0.93671    0.77888   1.00
C5       1.02147    1.06857    0.72935   1.00
C5       1.01570    1.07011    0.77065   1.00
H1       0.97781    0.94117    0.65114   1.00
H1       0.98979    0.93796    0.84886   1.00
H1       1.01907    1.05774    0.64947   1.00
H1       1.01237    1.05954    0.85053   1.00
C6       1.04024    1.10276    0.70766   1.00
C6       1.01655    1.10911    0.79234   1.00
H2       1.06214    1.11749    0.72642   1.00
H2       1.05804    1.09291    0.68263   1.00
C6       1.00921    1.13150    0.69276   1.00
H2       1.00496    1.13282    0.77358   1.00
H2       0.99621    1.10948    0.81737   1.00
C6       1.05780    1.11848    0.80724   1.00
H2       0.99119    1.14284    0.71726   1.00
C6       1.02842    1.16571    0.67168   1.00
H2       0.98894    1.11631    0.67240   1.00
C6       1.05828    1.15770    0.82832   1.00
H2       1.06776    1.09518    0.82760   1.00
H2       1.07907    1.11928    0.78274   1.00
H2       1.04814    1.18178    0.69178   1.00
H2       1.04552    1.15523    0.64620   1.00
H2       1.00569    1.18622    0.66102   1.00
H2       1.04924    1.18149    0.80822   1.00
H2       1.03823    1.15718    0.85380   1.00
H2       1.08821    1.16410    0.83898   1.00
C4       0.49925    0.49980    1.27067   1.00
C4       0.50075    0.50020    1.22933   1.00
C3       0.48660    0.53281    1.29244   1.00
C3       0.49519    0.53511    1.20756   1.00
C4       0.51087    0.46586    1.29150   1.00
C4       0.50767    0.46500    1.20850   1.00
C2       0.49985    0.50061    1.35352   1.00
C2       0.49982    0.50060    1.14648   1.00
C3       0.48732    0.53314    1.33310   1.00
C3       0.49441    0.53504    1.16690   1.00
C3       0.51099    0.46713    1.33306   1.00
C3       0.50692    0.46604    1.16694   1.00
H1       0.47503    0.55867    1.27888   1.00
H1       0.49228    0.56329    1.22112   1.00
C5       0.52147    0.43143    1.27065   1.00
C5       0.51570    0.42989    1.22935   1.00
H1       0.47781    0.55883    1.34886   1.00
H1       0.48979    0.56204    1.15114   1.00
H1       0.51907    0.44226    1.35053   1.00
H1       0.51237    0.44046    1.14947   1.00
C6       0.54024    0.39724    1.29234   1.00
C6       0.51655    0.39089    1.20766   1.00
H2       0.56214    0.38251    1.27358   1.00
H2       0.55804    0.40709    1.31737   1.00
C6       0.50921    0.36850    1.30724   1.00
H2       0.50496    0.36718    1.22642   1.00
H2       0.49621    0.39052    1.18263   1.00
C6       0.55780    0.38152    1.19276   1.00
H2       0.49119    0.35716    1.28274   1.00
C6       0.52842    0.33429    1.32832   1.00
H2       0.48894    0.38369    1.32760   1.00
C6       0.55828    0.34230    1.17168   1.00
H2       0.56776    0.40482    1.17240   1.00
H2       0.57907    0.38072    1.21726   1.00
H2       0.54814    0.31822    1.30822   1.00
H2       0.54552    0.34477    1.35380   1.00
H2       0.50569    0.31378    1.33898   1.00
H2       0.54924    0.31851    1.19178   1.00
H2       0.53823    0.34282    1.14620   1.00
H2       0.58821    0.33590    1.16102   1.00
C4       0.49980    0.77067    0.99925   1.00
C4       0.50020    0.72933    1.00075   1.00
C3       0.53281    0.79244    0.98660   1.00
C3       0.53511    0.70756    0.99519   1.00
C4       0.46586    0.79150    1.01087   1.00
C4       0.46500    0.70850    1.00767   1.00
C2       0.50061    0.85352    0.99985   1.00
C2       0.50060    0.64648    0.99982   1.00
C3       0.53314    0.83310    0.98732   1.00
C3       0.53504    0.66690    0.99441   1.00
C3       0.46713    0.83306    1.01099   1.00
C3       0.46604    0.66694    1.00692   1.00
H1       0.55867    0.77888    0.97503   1.00
H1       0.56329    0.72112    0.99228   1.00
C5       0.43143    0.77065    1.02147   1.00
C5       0.42989    0.72935    1.01570   1.00
H1       0.55883    0.84886    0.97781   1.00
H1       0.56204    0.65114    0.98979   1.00
H1       0.44226    0.85053    1.01907   1.00
H1       0.44046    0.64947    1.01237   1.00
C6       0.39724    0.79234    1.04024   1.00
C6       0.39089    0.70766    1.01655   1.00
H2       0.38251    0.77358    1.06214   1.00
H2       0.40709    0.81737    1.05804   1.00
C6       0.36850    0.80724    1.00921   1.00
H2       0.36718    0.72642    1.00496   1.00
H2       0.39052    0.68263    0.99621   1.00
C6       0.38152    0.69276    1.05780   1.00
H2       0.35716    0.78274    0.99119   1.00
C6       0.33429    0.82832    1.02842   1.00
H2       0.38369    0.82760    0.98894   1.00
C6       0.34230    0.67168    1.05828   1.00
H2       0.40482    0.67240    1.06776   1.00
H2       0.38072    0.71726    1.07907   1.00
H2       0.31822    0.80822    1.04814   1.00
H2       0.34477    0.85380    1.04552   1.00
H2       0.31378    0.83898    1.00569   1.00
H2       0.31851    0.69178    1.04924   1.00
H2       0.34282    0.64620    1.03823   1.00
H2       0.33590    0.66102    1.08821   1.00
C4       0.22933    0.49925    1.00020   1.00
C4       0.27067    0.50075    0.99980   1.00
C3       0.20756    0.48660    0.96719   1.00
C3       0.29244    0.49519    0.96489   1.00
C4       0.20850    0.51087    1.03414   1.00
C4       0.29150    0.50767    1.03500   1.00
C2       0.14648    0.49985    0.99939   1.00
C2       0.35352    0.49982    0.99940   1.00
C3       0.16690    0.48732    0.96686   1.00
C3       0.33310    0.49441    0.96496   1.00
C3       0.16694    0.51099    1.03287   1.00
C3       0.33306    0.50692    1.03396   1.00
H1       0.22112    0.47503    0.94133   1.00
H1       0.27888    0.49228    0.93671   1.00
C5       0.22935    0.52147    1.06857   1.00
C5       0.27065    0.51570    1.07011   1.00
H1       0.15114    0.47781    0.94117   1.00
H1       0.34886    0.48979    0.93796   1.00
H1       0.14947    0.51907    1.05774   1.00
H1       0.35053    0.51237    1.05954   1.00
C6       0.20766    0.54024    1.10276   1.00
C6       0.29234    0.51655    1.10911   1.00
H2       0.22642    0.56214    1.11749   1.00
H2       0.18263    0.55804    1.09291   1.00
C6       0.19276    0.50921    1.13150   1.00
H2       0.27358    0.50496    1.13282   1.00
H2       0.31737    0.49621    1.10948   1.00
C6       0.30724    0.55780    1.11848   1.00
H2       0.21726    0.49119    1.14284   1.00
C6       0.17168    0.52842    1.16571   1.00
H2       0.17240    0.48894    1.11631   1.00
C6       0.32832    0.55828    1.15770   1.00
H2       0.32760    0.56776    1.09518   1.00
H2       0.28274    0.57907    1.11928   1.00
H2       0.19178    0.54814    1.18178   1.00
H2       0.14620    0.54552    1.15523   1.00
H2       0.16102    0.50569    1.18622   1.00
H2       0.30822    0.54924    1.18149   1.00
H2       0.35380    0.53823    1.15718   1.00
H2       0.33898    0.58821    1.16410   1.00
C4       0.77067    0.49925    0.99980   1.00
C4       0.72933    0.50075    1.00020   1.00
C3       0.79244    0.48660    1.03281   1.00
C3       0.70756    0.49519    1.03511   1.00
C4       0.79150    0.51087    0.96586   1.00
C4       0.70850    0.50767    0.96500   1.00
C2       0.85352    0.49985    1.00061   1.00
C2       0.64648    0.49982    1.00060   1.00
C3       0.83310    0.48732    1.03314   1.00
C3       0.66690    0.49441    1.03504   1.00
C3       0.83306    0.51099    0.96713   1.00
C3       0.66694    0.50692    0.96604   1.00
H1       0.77888    0.47503    1.05867   1.00
H1       0.72112    0.49228    1.06329   1.00
C5       0.77065    0.52147    0.93143   1.00
C5       0.72935    0.51570    0.92989   1.00
H1       0.84886    0.47781    1.05883   1.00
H1       0.65114    0.48979    1.06204   1.00
H1       0.85053    0.51907    0.94226   1.00
H1       0.64947    0.51237    0.94046   1.00
C6       0.79234    0.54024    0.89724   1.00
C6       0.70766    0.51655    0.89089   1.00
H2       0.77358    0.56214    0.88251   1.00
H2       0.81737    0.55804    0.90709   1.00
C6       0.80724    0.50921    0.86850   1.00
H2       0.72642    0.50496    0.86718   1.00
H2       0.68263    0.49621    0.89052   1.00
C6       0.69276    0.55780    0.88152   1.00
H2       0.78274    0.49119    0.85716   1.00
C6       0.82832    0.52842    0.83429   1.00
H2       0.82760    0.48894    0.88369   1.00
C6       0.67168    0.55828    0.84230   1.00
H2       0.67240    0.56776    0.90482   1.00
H2       0.71726    0.57907    0.88072   1.00
H2       0.80822    0.54814    0.81822   1.00
H2       0.85380    0.54552    0.84477   1.00
H2       0.83898    0.50569    0.81378   1.00
H2       0.69178    0.54924    0.81851   1.00
H2       0.64620    0.53823    0.84282   1.00
H2       0.66102    0.58821    0.83590   1.00
C4       0.50020    0.22933    0.99925   1.00
C4       0.49980    0.27067    1.00075   1.00
C3       0.46719    0.20756    0.98660   1.00
C3       0.46489    0.29244    0.99519   1.00
C4       0.53414    0.20850    1.01087   1.00
C4       0.53500    0.29150    1.00767   1.00
C2       0.49939    0.14648    0.99985   1.00
C2       0.49940    0.35352    0.99982   1.00
C3       0.46686    0.16690    0.98732   1.00
C3       0.46496    0.33310    0.99441   1.00
C3       0.53287    0.16694    1.01099   1.00
C3       0.53396    0.33306    1.00692   1.00
H1       0.44133    0.22112    0.97503   1.00
H1       0.43671    0.27888    0.99228   1.00
C5       0.56857    0.22935    1.02147   1.00
C5       0.57011    0.27065    1.01570   1.00
H1       0.44117    0.15114    0.97781   1.00
H1       0.43796    0.34886    0.98979   1.00
H1       0.55774    0.14947    1.01907   1.00
H1       0.55954    0.35053    1.01237   1.00
C6       0.60276    0.20766    1.04024   1.00
C6       0.60911    0.29234    1.01655   1.00
H2       0.61749    0.22642    1.06214   1.00
H2       0.59291    0.18263    1.05804   1.00
C6       0.63150    0.19276    1.00921   1.00
H2       0.63282    0.27358    1.00496   1.00
H2       0.60948    0.31737    0.99621   1.00
C6       0.61848    0.30724    1.05780   1.00
H2       0.64284    0.21726    0.99119   1.00
C6       0.66571    0.17168    1.02842   1.00
H2       0.61631    0.17240    0.98894   1.00
C6       0.65770    0.32832    1.05828   1.00
H2       0.59518    0.32760    1.06776   1.00
H2       0.61928    0.28274    1.07907   1.00
H2       0.68178    0.19178    1.04814   1.00
H2       0.65523    0.14620    1.04552   1.00
H2       0.68622    0.16102    1.00569   1.00
H2       0.68149    0.30822    1.04924   1.00
H2       0.65718    0.35380    1.03823   1.00
H2       0.66410    0.33898    1.08821   1.00
C4       0.49925    0.50020    0.72933   1.00
C4       0.50075    0.49980    0.77067   1.00
C3       0.48660    0.46719    0.70756   1.00
C3       0.49519    0.46489    0.79244   1.00
C4       0.51087    0.53414    0.70850   1.00
C4       0.50767    0.53500    0.79150   1.00
C2       0.49985    0.49939    0.64648   1.00
C2       0.49982    0.49940    0.85352   1.00
C3       0.48732    0.46686    0.66690   1.00
C3       0.49441    0.46496    0.83310   1.00
C3       0.51099    0.53287    0.66694   1.00
C3       0.50692    0.53396    0.83306   1.00
H1       0.47503    0.44133    0.72112   1.00
H1       0.49228    0.43671    0.77888   1.00
C5       0.52147    0.56857    0.72935   1.00
C5       0.51570    0.57011    0.77065   1.00
H1       0.47781    0.44117    0.65114   1.00
H1       0.48979    0.43796    0.84886   1.00
H1       0.51907    0.55774    0.64947   1.00
H1       0.51237    0.55954    0.85053   1.00
C6       0.54024    0.60276    0.70766   1.00
C6       0.51655    0.60911    0.79234   1.00
H2       0.56214    0.61749    0.72642   1.00
H2       0.55804    0.59291    0.68263   1.00
C6       0.50921    0.63150    0.69276   1.00
H2       0.50496    0.63282    0.77358   1.00
H2       0.49621    0.60948    0.81737   1.00
C6       0.55780    0.61848    0.80724   1.00
H2       0.49119    0.64284    0.71726   1.00
C6       0.52842    0.66571    0.67168   1.00
H2       0.48894    0.61631    0.67240   1.00
C6       0.55828    0.65770    0.82832   1.00
H2       0.56776    0.59518    0.82760   1.00
H2       0.57907    0.61928    0.78274   1.00
H2       0.54814    0.68178    0.69178   1.00
H2       0.54552    0.65523    0.64620   1.00
H2       0.50569    0.68622    0.66102   1.00
H2       0.54924    0.68149    0.80822   1.00
H2       0.53823    0.65718    0.85380   1.00
H2       0.58821    0.66410    0.83898   1.00
C4       0.49925    0.99980    0.77067   1.00
C4       0.50075    1.00020    0.72933   1.00
C3       0.48660    1.03281    0.79244   1.00
C3       0.49519    1.03511    0.70756   1.00
C4       0.51087    0.96586    0.79150   1.00
C4       0.50767    0.96500    0.70850   1.00
C2       0.49985    1.00061    0.85352   1.00
C2       0.49982    1.00060    0.64648   1.00
C3       0.48732    1.03314    0.83310   1.00
C3       0.49441    1.03504    0.66690   1.00
C3       0.51099    0.96713    0.83306   1.00
C3       0.50692    0.96604    0.66694   1.00
H1       0.47503    1.05867    0.77888   1.00
H1       0.49228    1.06329    0.72112   1.00
C5       0.52147    0.93143    0.77065   1.00
C5       0.51570    0.92989    0.72935   1.00
H1       0.47781    1.05883    0.84886   1.00
H1       0.48979    1.06204    0.65114   1.00
H1       0.51907    0.94226    0.85053   1.00
H1       0.51237    0.94046    0.64947   1.00
C6       0.54024    0.89724    0.79234   1.00
C6       0.51655    0.89089    0.70766   1.00
H2       0.56214    0.88251    0.77358   1.00
H2       0.55804    0.90709    0.81737   1.00
C6       0.50921    0.86850    0.80724   1.00
H2       0.50496    0.86718    0.72642   1.00
H2       0.49621    0.89052    0.68263   1.00
C6       0.55780    0.88152    0.69276   1.00
H2       0.49119    0.85716    0.78274   1.00
C6       0.52842    0.83429    0.82832   1.00
H2       0.48894    0.88369    0.82760   1.00
C6       0.55828    0.84230    0.67168   1.00
H2       0.56776    0.90482    0.67240   1.00
H2       0.57907    0.88072    0.71726   1.00
H2       0.54814    0.81822    0.80822   1.00
H2       0.54552    0.84477    0.85380   1.00
H2       0.50569    0.81378    0.83898   1.00
H2       0.54924    0.81851    0.69178   1.00
H2       0.53823    0.84282    0.64620   1.00
H2       0.58821    0.83590    0.66102   1.00
C4       0.49980    1.27067    0.49925   1.00
C4       0.50020    1.22933    0.50075   1.00
C3       0.53281    1.29244    0.48660   1.00
C3       0.53511    1.20756    0.49519   1.00
C4       0.46586    1.29150    0.51087   1.00
C4       0.46500    1.20850    0.50767   1.00
C2       0.50061    1.35352    0.49985   1.00
C2       0.50060    1.14648    0.49982   1.00
C3       0.53314    1.33310    0.48732   1.00
C3       0.53504    1.16690    0.49441   1.00
C3       0.46713    1.33306    0.51099   1.00
C3       0.46604    1.16694    0.50692   1.00
H1       0.55867    1.27888    0.47503   1.00
H1       0.56329    1.22112    0.49228   1.00
C5       0.43143    1.27065    0.52147   1.00
C5       0.42989    1.22935    0.51570   1.00
H1       0.55883    1.34886    0.47781   1.00
H1       0.56204    1.15114    0.48979   1.00
H1       0.44226    1.35053    0.51907   1.00
H1       0.44046    1.14947    0.51237   1.00
C6       0.39724    1.29234    0.54024   1.00
C6       0.39089    1.20766    0.51655   1.00
H2       0.38251    1.27358    0.56214   1.00
H2       0.40709    1.31737    0.55804   1.00
C6       0.36850    1.30724    0.50921   1.00
H2       0.36718    1.22642    0.50496   1.00
H2       0.39052    1.18263    0.49621   1.00
C6       0.38152    1.19276    0.55780   1.00
H2       0.35716    1.28274    0.49119   1.00
C6       0.33429    1.32832    0.52842   1.00
H2       0.38369    1.32760    0.48894   1.00
C6       0.34230    1.17168    0.55828   1.00
H2       0.40482    1.17240    0.56776   1.00
H2       0.38072    1.21726    0.57907   1.00
H2       0.31822    1.30822    0.54814   1.00
H2       0.34477    1.35380    0.54552   1.00
H2       0.31378    1.33898    0.50569   1.00
H2       0.31851    1.19178    0.54924   1.00
H2       0.34282    1.14620    0.53823   1.00
H2       0.33590    1.16102    0.58821   1.00
C4       0.22933    0.99925    0.50020   1.00
C4       0.27067    1.00075    0.49980   1.00
C3       0.20756    0.98660    0.46719   1.00
C3       0.29244    0.99519    0.46489   1.00
C4       0.20850    1.01087    0.53414   1.00
C4       0.29150    1.00767    0.53500   1.00
C2       0.14648    0.99985    0.49939   1.00
C2       0.35352    0.99982    0.49940   1.00
C3       0.16690    0.98732    0.46686   1.00
C3       0.33310    0.99441    0.46496   1.00
C3       0.16694    1.01099    0.53287   1.00
C3       0.33306    1.00692    0.53396   1.00
H1       0.22112    0.97503    0.44133   1.00
H1       0.27888    0.99228    0.43671   1.00
C5       0.22935    1.02147    0.56857   1.00
C5       0.27065    1.01570    0.57011   1.00
H1       0.15114    0.97781    0.44117   1.00
H1       0.34886    0.98979    0.43796   1.00
H1       0.14947    1.01907    0.55774   1.00
H1       0.35053    1.01237    0.55954   1.00
C6       0.20766    1.04024    0.60276   1.00
C6       0.29234    1.01655    0.60911   1.00
H2       0.22642    1.06214    0.61749   1.00
H2       0.18263    1.05804    0.59291   1.00
C6       0.19276    1.00921    0.63150   1.00
H2       0.27358    1.00496    0.63282   1.00
H2       0.31737    0.99621    0.60948   1.00
C6       0.30724    1.05780    0.61848   1.00
H2       0.21726    0.99119    0.64284   1.00
C6       0.17168    1.02842    0.66571   1.00
H2       0.17240    0.98894    0.61631   1.00
C6       0.32832    1.05828    0.65770   1.00
H2       0.32760    1.06776    0.59518   1.00
H2       0.28274    1.07907    0.61928   1.00
H2       0.19178    1.04814    0.68178   1.00
H2       0.14620    1.04552    0.65523   1.00
H2       0.16102    1.00569    0.68622   1.00
H2       0.30822    1.04924    0.68149   1.00
H2       0.35380    1.03823    0.65718   1.00
H2       0.33898    1.08821    0.66410   1.00
C4       0.77067    0.99925    0.49980   1.00
C4       0.72933    1.00075    0.50020   1.00
C3       0.79244    0.98660    0.53281   1.00
C3       0.70756    0.99519    0.53511   1.00
C4       0.79150    1.01087    0.46586   1.00
C4       0.70850    1.00767    0.46500   1.00
C2       0.85352    0.99985    0.50061   1.00
C2       0.64648    0.99982    0.50060   1.00
C3       0.83310    0.98732    0.53314   1.00
C3       0.66690    0.99441    0.53504   1.00
C3       0.83306    1.01099    0.46713   1.00
C3       0.66694    1.00692    0.46604   1.00
H1       0.77888    0.97503    0.55867   1.00
H1       0.72112    0.99228    0.56329   1.00
C5       0.77065    1.02147    0.43143   1.00
C5       0.72935    1.01570    0.42989   1.00
H1       0.84886    0.97781    0.55883   1.00
H1       0.65114    0.98979    0.56204   1.00
H1       0.85053    1.01907    0.44226   1.00
H1       0.64947    1.01237    0.44046   1.00
C6       0.79234    1.04024    0.39724   1.00
C6       0.70766    1.01655    0.39089   1.00
H2       0.77358    1.06214    0.38251   1.00
H2       0.81737    1.05804    0.40709   1.00
C6       0.80724    1.00921    0.36850   1.00
H2       0.72642    1.00496    0.36718   1.00
H2       0.68263    0.99621    0.39052   1.00
C6       0.69276    1.05780    0.38152   1.00
H2       0.78274    0.99119    0.35716   1.00
C6       0.82832    1.02842    0.33429   1.00
H2       0.82760    0.98894    0.38369   1.00
C6       0.67168    1.05828    0.34230   1.00
H2       0.67240    1.06776    0.40482   1.00
H2       0.71726    1.07907    0.38072   1.00
H2       0.80822    1.04814    0.31822   1.00
H2       0.85380    1.04552    0.34477   1.00
H2       0.83898    1.00569    0.31378   1.00
H2       0.69178    1.04924    0.31851   1.00
H2       0.64620    1.03823    0.34282   1.00
H2       0.66102    1.08821    0.33590   1.00
C4       0.50020    0.72933    0.49925   1.00
C4       0.49980    0.77067    0.50075   1.00
C3       0.46719    0.70756    0.48660   1.00
C3       0.46489    0.79244    0.49519   1.00
C4       0.53414    0.70850    0.51087   1.00
C4       0.53500    0.79150    0.50767   1.00
C2       0.49939    0.64648    0.49985   1.00
C2       0.49940    0.85352    0.49982   1.00
C3       0.46686    0.66690    0.48732   1.00
C3       0.46496    0.83310    0.49441   1.00
C3       0.53287    0.66694    0.51099   1.00
C3       0.53396    0.83306    0.50692   1.00
H1       0.44133    0.72112    0.47503   1.00
H1       0.43671    0.77888    0.49228   1.00
C5       0.56857    0.72935    0.52147   1.00
C5       0.57011    0.77065    0.51570   1.00
H1       0.44117    0.65114    0.47781   1.00
H1       0.43796    0.84886    0.48979   1.00
H1       0.55774    0.64947    0.51907   1.00
H1       0.55954    0.85053    0.51237   1.00
C6       0.60276    0.70766    0.54024   1.00
C6       0.60911    0.79234    0.51655   1.00
H2       0.61749    0.72642    0.56214   1.00
H2       0.59291    0.68263    0.55804   1.00
C6       0.63150    0.69276    0.50921   1.00
H2       0.63282    0.77358    0.50496   1.00
H2       0.60948    0.81737    0.49621   1.00
C6       0.61848    0.80724    0.55780   1.00
H2       0.64284    0.71726    0.49119   1.00
C6       0.66571    0.67168    0.52842   1.00
H2       0.61631    0.67240    0.48894   1.00
C6       0.65770    0.82832    0.55828   1.00
H2       0.59518    0.82760    0.56776   1.00
H2       0.61928    0.78274    0.57907   1.00
H2       0.68178    0.69178    0.54814   1.00
H2       0.65523    0.64620    0.54552   1.00
H2       0.68622    0.66102    0.50569   1.00
H2       0.68149    0.80822    0.54924   1.00
H2       0.65718    0.85380    0.53823   1.00
H2       0.66410    0.83898    0.58821   1.00
C4       0.49925    1.00020    0.22933   1.00
C4       0.50075    0.99980    0.27067   1.00
C3       0.48660    0.96719    0.20756   1.00
C3       0.49519    0.96489    0.29244   1.00
C4       0.51087    1.03414    0.20850   1.00
C4       0.50767    1.03500    0.29150   1.00
C2       0.49985    0.99939    0.14648   1.00
C2       0.49982    0.99940    0.35352   1.00
C3       0.48732    0.96686    0.16690   1.00
C3       0.49441    0.96496    0.33310   1.00
C3       0.51099    1.03287    0.16694   1.00
C3       0.50692    1.03396    0.33306   1.00
H1       0.47503    0.94133    0.22112   1.00
H1       0.49228    0.93671    0.27888   1.00
C5       0.52147    1.06857    0.22935   1.00
C5       0.51570    1.07011    0.27065   1.00
H1       0.47781    0.94117    0.15114   1.00
H1       0.48979    0.93796    0.34886   1.00
H1       0.51907    1.05774    0.14947   1.00
H1       0.51237    1.05954    0.35053   1.00
C6       0.54024    1.10276    0.20766   1.00
C6       0.51655    1.10911    0.29234   1.00
H2       0.56214    1.11749    0.22642   1.00
H2       0.55804    1.09291    0.18263   1.00
C6       0.50921    1.13150    0.19276   1.00
H2       0.50496    1.13282    0.27358   1.00
H2       0.49621    1.10948    0.31737   1.00
C6       0.55780    1.11848    0.30724   1.00
H2       0.49119    1.14284    0.21726   1.00
C6       0.52842    1.16571    0.17168   1.00
H2       0.48894    1.11631    0.17240   1.00
C6       0.55828    1.15770    0.32832   1.00
H2       0.56776    1.09518    0.32760   1.00
H2       0.57907    1.11928    0.28274   1.00
H2       0.54814    1.18178    0.19178   1.00
H2       0.54552    1.15523    0.14620   1.00
H2       0.50569    1.18622    0.16102   1.00
H2       0.54924    1.18149    0.30822   1.00
H2       0.53823    1.15718    0.35380   1.00
H2       0.58821    1.16410    0.33898   1.00
C4       0.99925    0.49980    0.77067   1.00
C4       1.00075    0.50020    0.72933   1.00
C3       0.98660    0.53281    0.79244   1.00
C3       0.99519    0.53511    0.70756   1.00
C4       1.01087    0.46586    0.79150   1.00
C4       1.00767    0.46500    0.70850   1.00
C2       0.99985    0.50061    0.85352   1.00
C2       0.99982    0.50060    0.64648   1.00
C3       0.98732    0.53314    0.83310   1.00
C3       0.99441    0.53504    0.66690   1.00
C3       1.01099    0.46713    0.83306   1.00
C3       1.00692    0.46604    0.66694   1.00
H1       0.97503    0.55867    0.77888   1.00
H1       0.99228    0.56329    0.72112   1.00
C5       1.02147    0.43143    0.77065   1.00
C5       1.01570    0.42989    0.72935   1.00
H1       0.97781    0.55883    0.84886   1.00
H1       0.98979    0.56204    0.65114   1.00
H1       1.01907    0.44226    0.85053   1.00
H1       1.01237    0.44046    0.64947   1.00
C6       1.04024    0.39724    0.79234   1.00
C6       1.01655    0.39089    0.70766   1.00
H2       1.06214    0.38251    0.77358   1.00
H2       1.05804    0.40709    0.81737   1.00
C6       1.00921    0.36850    0.80724   1.00
H2       1.00496    0.36718    0.72642   1.00
H2       0.99621    0.39052    0.68263   1.00
C6       1.05780    0.38152    0.69276   1.00
H2       0.99119    0.35716    0.78274   1.00
C6       1.02842    0.33429    0.82832   1.00
H2       0.98894    0.38369    0.82760   1.00
C6       1.05828    0.34230    0.67168   1.00
H2       1.06776    0.40482    0.67240   1.00
H2       1.07907    0.38072    0.71726   1.00
H2       1.04814    0.31822    0.80822   1.00
H2       1.04552    0.34477    0.85380   1.00
H2       1.00569    0.31378    0.83898   1.00
H2       1.04924    0.31851    0.69178   1.00
H2       1.03823    0.34282    0.64620   1.00
H2       1.08821    0.33590    0.66102   1.00
C4       0.99980    0.77067    0.49925   1.00
C4       1.00020    0.72933    0.50075   1.00
C3       1.03281    0.79244    0.48660   1.00
C3       1.03511    0.70756    0.49519   1.00
C4       0.96586    0.79150    0.51087   1.00
C4       0.96500    0.70850    0.50767   1.00
C2       1.00061    0.85352    0.49985   1.00
C2       1.00060    0.64648    0.49982   1.00
C3       1.03314    0.83310    0.48732   1.00
C3       1.03504    0.66690    0.49441   1.00
C3       0.96713    0.83306    0.51099   1.00
C3       0.96604    0.66694    0.50692   1.00
H1       1.05867    0.77888    0.47503   1.00
H1       1.06329    0.72112    0.49228   1.00
C5       0.93143    0.77065    0.52147   1.00
C5       0.92989    0.72935    0.51570   1.00
H1       1.05883    0.84886    0.47781   1.00
H1       1.06204    0.65114    0.48979   1.00
H1       0.94226    0.85053    0.51907   1.00
H1       0.94046    0.64947    0.51237   1.00
C6       0.89724    0.79234    0.54024   1.00
C6       0.89089    0.70766    0.51655   1.00
H2       0.88251    0.77358    0.56214   1.00
H2       0.90709    0.81737    0.55804   1.00
C6       0.86850    0.80724    0.50921   1.00
H2       0.86718    0.72642    0.50496   1.00
H2       0.89052    0.68263    0.49621   1.00
C6       0.88152    0.69276    0.55780   1.00
H2       0.85716    0.78274    0.49119   1.00
C6       0.83429    0.82832    0.52842   1.00
H2       0.88369    0.82760    0.48894   1.00
C6       0.84230    0.67168    0.55828   1.00
H2       0.90482    0.67240    0.56776   1.00
H2       0.88072    0.71726    0.57907   1.00
H2       0.81822    0.80822    0.54814   1.00
H2       0.84477    0.85380    0.54552   1.00
H2       0.81378    0.83898    0.50569   1.00
H2       0.81851    0.69178    0.54924   1.00
H2       0.84282    0.64620    0.53823   1.00
H2       0.83590    0.66102    0.58821   1.00
C4       0.72933    0.49925    0.50020   1.00
C4       0.77067    0.50075    0.49980   1.00
C3       0.70756    0.48660    0.46719   1.00
C3       0.79244    0.49519    0.46489   1.00
C4       0.70850    0.51087    0.53414   1.00
C4       0.79150    0.50767    0.53500   1.00
C2       0.64648    0.49985    0.49939   1.00
C2       0.85352    0.49982    0.49940   1.00
C3       0.66690    0.48732    0.46686   1.00
C3       0.83310    0.49441    0.46496   1.00
C3       0.66694    0.51099    0.53287   1.00
C3       0.83306    0.50692    0.53396   1.00
H1       0.72112    0.47503    0.44133   1.00
H1       0.77888    0.49228    0.43671   1.00
C5       0.72935    0.52147    0.56857   1.00
C5       0.77065    0.51570    0.57011   1.00
H1       0.65114    0.47781    0.44117   1.00
H1       0.84886    0.48979    0.43796   1.00
H1       0.64947    0.51907    0.55774   1.00
H1       0.85053    0.51237    0.55954   1.00
C6       0.70766    0.54024    0.60276   1.00
C6       0.79234    0.51655    0.60911   1.00
H2       0.72642    0.56214    0.61749   1.00
H2       0.68263    0.55804    0.59291   1.00
C6       0.69276    0.50921    0.63150   1.00
H2       0.77358    0.50496    0.63282   1.00
H2       0.81737    0.49621    0.60948   1.00
C6       0.80724    0.55780    0.61848   1.00
H2       0.71726    0.49119    0.64284   1.00
C6       0.67168    0.52842    0.66571   1.00
H2       0.67240    0.48894    0.61631   1.00
C6       0.82832    0.55828    0.65770   1.00
H2       0.82760    0.56776    0.59518   1.00
H2       0.78274    0.57907    0.61928   1.00
H2       0.69178    0.54814    0.68178   1.00
H2       0.64620    0.54552    0.65523   1.00
H2       0.66102    0.50569    0.68622   1.00
H2       0.80822    0.54924    0.68149   1.00
H2       0.85380    0.53823    0.65718   1.00
H2       0.83898    0.58821    0.66410   1.00
C4       1.27067    0.49925    0.49980   1.00
C4       1.22933    0.50075    0.50020   1.00
C3       1.29244    0.48660    0.53281   1.00
C3       1.20756    0.49519    0.53511   1.00
C4       1.29150    0.51087    0.46586   1.00
C4       1.20850    0.50767    0.46500   1.00
C2       1.35352    0.49985    0.50061   1.00
C2       1.14648    0.49982    0.50060   1.00
C3       1.33310    0.48732    0.53314   1.00
C3       1.16690    0.49441    0.53504   1.00
C3       1.33306    0.51099    0.46713   1.00
C3       1.16694    0.50692    0.46604   1.00
H1       1.27888    0.47503    0.55867   1.00
H1       1.22112    0.49228    0.56329   1.00
C5       1.27065    0.52147    0.43143   1.00
C5       1.22935    0.51570    0.42989   1.00
H1       1.34886    0.47781    0.55883   1.00
H1       1.15114    0.48979    0.56204   1.00
H1       1.35053    0.51907    0.44226   1.00
H1       1.14947    0.51237    0.44046   1.00
C6       1.29234    0.54024    0.39724   1.00
C6       1.20766    0.51655    0.39089   1.00
H2       1.27358    0.56214    0.38251   1.00
H2       1.31737    0.55804    0.40709   1.00
C6       1.30724    0.50921    0.36850   1.00
H2       1.22642    0.50496    0.36718   1.00
H2       1.18263    0.49621    0.39052   1.00
C6       1.19276    0.55780    0.38152   1.00
H2       1.28274    0.49119    0.35716   1.00
C6       1.32832    0.52842    0.33429   1.00
H2       1.32760    0.48894    0.38369   1.00
C6       1.17168    0.55828    0.34230   1.00
H2       1.17240    0.56776    0.40482   1.00
H2       1.21726    0.57907    0.38072   1.00
H2       1.30822    0.54814    0.31822   1.00
H2       1.35380    0.54552    0.34477   1.00
H2       1.33898    0.50569    0.31378   1.00
H2       1.19178    0.54924    0.31851   1.00
H2       1.14620    0.53823    0.34282   1.00
H2       1.16102    0.58821    0.33590   1.00
C4       1.00020    0.22933    0.49925   1.00
C4       0.99980    0.27067    0.50075   1.00
C3       0.96719    0.20756    0.48660   1.00
C3       0.96489    0.29244    0.49519   1.00
C4       1.03414    0.20850    0.51087   1.00
C4       1.03500    0.29150    0.50767   1.00
C2       0.99939    0.14648    0.49985   1.00
C2       0.99940    0.35352    0.49982   1.00
C3       0.96686    0.16690    0.48732   1.00
C3       0.96496    0.33310    0.49441   1.00
C3       1.03287    0.16694    0.51099   1.00
C3       1.03396    0.33306    0.50692   1.00
H1       0.94133    0.22112    0.47503   1.00
H1       0.93671    0.27888    0.49228   1.00
C5       1.06857    0.22935    0.52147   1.00
C5       1.07011    0.27065    0.51570   1.00
H1       0.94117    0.15114    0.47781   1.00
H1       0.93796    0.34886    0.48979   1.00
H1       1.05774    0.14947    0.51907   1.00
H1       1.05954    0.35053    0.51237   1.00
C6       1.10276    0.20766    0.54024   1.00
C6       1.10911    0.29234    0.51655   1.00
H2       1.11749    0.22642    0.56214   1.00
H2       1.09291    0.18263    0.55804   1.00
C6       1.13150    0.19276    0.50921   1.00
H2       1.13282    0.27358    0.50496   1.00
H2       1.10948    0.31737    0.49621   1.00
C6       1.11848    0.30724    0.55780   1.00
H2       1.14284    0.21726    0.49119   1.00
C6       1.16571    0.17168    0.52842   1.00
H2       1.11631    0.17240    0.48894   1.00
C6       1.15770    0.32832    0.55828   1.00
H2       1.09518    0.32760    0.56776   1.00
H2       1.11928    0.28274    0.57907   1.00
H2       1.18178    0.19178    0.54814   1.00
H2       1.15523    0.14620    0.54552   1.00
H2       1.18622    0.16102    0.50569   1.00
H2       1.18149    0.30822    0.54924   1.00
H2       1.15718    0.35380    0.53823   1.00
H2       1.16410    0.33898    0.58821   1.00
C4       0.99925    0.50020    0.22933   1.00
C4       1.00075    0.49980    0.27067   1.00
C3       0.98660    0.46719    0.20756   1.00
C3       0.99519    0.46489    0.29244   1.00
C4       1.01087    0.53414    0.20850   1.00
C4       1.00767    0.53500    0.29150   1.00
C2       0.99985    0.49939    0.14648   1.00
C2       0.99982    0.49940    0.35352   1.00
C3       0.98732    0.46686    0.16690   1.00
C3       0.99441    0.46496    0.33310   1.00
C3       1.01099    0.53287    0.16694   1.00
C3       1.00692    0.53396    0.33306   1.00
H1       0.97503    0.44133    0.22112   1.00
H1       0.99228    0.43671    0.27888   1.00
C5       1.02147    0.56857    0.22935   1.00
C5       1.01570    0.57011    0.27065   1.00
H1       0.97781    0.44117    0.15114   1.00
H1       0.98979    0.43796    0.34886   1.00
H1       1.01907    0.55774    0.14947   1.00
H1       1.01237    0.55954    0.35053   1.00
C6       1.04024    0.60276    0.20766   1.00
C6       1.01655    0.60911    0.29234   1.00
H2       1.06214    0.61749    0.22642   1.00
H2       1.05804    0.59291    0.18263   1.00
C6       1.00921    0.63150    0.19276   1.00
H2       1.00496    0.63282    0.27358   1.00
H2       0.99621    0.60948    0.31737   1.00
C6       1.05780    0.61848    0.30724   1.00
H2       0.99119    0.64284    0.21726   1.00
C6       1.02842    0.66571    0.17168   1.00
H2       0.98894    0.61631    0.17240   1.00
C6       1.05828    0.65770    0.32832   1.00
H2       1.06776    0.59518    0.32760   1.00
H2       1.07907    0.61928    0.28274   1.00
H2       1.04814    0.68178    0.19178   1.00
H2       1.04552    0.65523    0.14620   1.00
H2       1.00569    0.68622    0.16102   1.00
H2       1.04924    0.68149    0.30822   1.00
H2       1.03823    0.65718    0.35380   1.00
H2       1.08821    0.66410    0.33898   1.00
