data_IRMOF10_SG202_interpen_Ligand9lp_label_i.

_audit_creation_method             'generated by an auxiliary program of Tobunporous'

_symmetry_space_group_name_H-M     'P 1'
_symmetry_Int_Tables_number        1
_symmetry_cell_setting             triclinic

_cell_length_a                    34.2800
_cell_length_b                    34.2800
_cell_length_c                    34.2800
_cell_angle_alpha                 90.0000
_cell_angle_beta                  90.0000
_cell_angle_gamma                 90.0000

loop_
_atom_site_label
_atom_site_fract_x
_atom_site_fract_y
_atom_site_fract_z
_atom_site_occupancy
O1       0.75000    0.75000    0.75000   1.00
Zn1      0.71720    0.78280    0.78280   1.00
Zn1      0.78280    0.71720    0.78280   1.00
Zn1      0.78280    0.78280    0.71720   1.00
Zn1      0.71720    0.71720    0.71720   1.00
O2       0.72650    0.77350    0.83820   1.00
O2       0.72650    0.83820    0.77350   1.00
O2       0.66180    0.77350    0.77350   1.00
O2       0.77350    0.72650    0.83820   1.00
O2       0.83820    0.72650    0.77350   1.00
O2       0.77350    0.66180    0.77350   1.00
O2       0.77350    0.83820    0.72650   1.00
O2       0.83820    0.77350    0.72650   1.00
O2       0.77350    0.77350    0.66180   1.00
O2       0.66180    0.72650    0.72650   1.00
O2       0.72650    0.66180    0.72650   1.00
O2       0.72650    0.72650    0.66180   1.00
C1       0.75000    0.75000    0.85520   1.00
C1       0.75000    0.85520    0.75000   1.00
C1       0.64480    0.75000    0.75000   1.00
C1       0.85520    0.75000    0.75000   1.00
C1       0.75000    0.64480    0.75000   1.00
C1       0.75000    0.75000    0.64480   1.00
O1       0.25000    0.25000    0.75000   1.00
Zn1      0.21720    0.28280    0.78280   1.00
Zn1      0.28280    0.21720    0.78280   1.00
Zn1      0.28280    0.28280    0.71720   1.00
Zn1      0.21720    0.21720    0.71720   1.00
O2       0.22650    0.27350    0.83820   1.00
O2       0.22650    0.33820    0.77350   1.00
O2       0.16180    0.27350    0.77350   1.00
O2       0.27350    0.22650    0.83820   1.00
O2       0.33820    0.22650    0.77350   1.00
O2       0.27350    0.16180    0.77350   1.00
O2       0.27350    0.33820    0.72650   1.00
O2       0.33820    0.27350    0.72650   1.00
O2       0.27350    0.27350    0.66180   1.00
O2       0.16180    0.22650    0.72650   1.00
O2       0.22650    0.16180    0.72650   1.00
O2       0.22650    0.22650    0.66180   1.00
C1       0.25000    0.25000    0.85520   1.00
C1       0.25000    0.35520    0.75000   1.00
C1       0.14480    0.25000    0.75000   1.00
C1       0.35520    0.25000    0.75000   1.00
C1       0.25000    0.14480    0.75000   1.00
C1       0.25000    0.25000    0.64480   1.00
O1       0.25000    0.75000    0.25000   1.00
Zn1      0.21720    0.78280    0.28280   1.00
Zn1      0.28280    0.71720    0.28280   1.00
Zn1      0.28280    0.78280    0.21720   1.00
Zn1      0.21720    0.71720    0.21720   1.00
O2       0.22650    0.77350    0.33820   1.00
O2       0.22650    0.83820    0.27350   1.00
O2       0.16180    0.77350    0.27350   1.00
O2       0.27350    0.72650    0.33820   1.00
O2       0.33820    0.72650    0.27350   1.00
O2       0.27350    0.66180    0.27350   1.00
O2       0.27350    0.83820    0.22650   1.00
O2       0.33820    0.77350    0.22650   1.00
O2       0.27350    0.77350    0.16180   1.00
O2       0.16180    0.72650    0.22650   1.00
O2       0.22650    0.66180    0.22650   1.00
O2       0.22650    0.72650    0.16180   1.00
C1       0.25000    0.75000    0.35520   1.00
C1       0.25000    0.85520    0.25000   1.00
C1       0.14480    0.75000    0.25000   1.00
C1       0.35520    0.75000    0.25000   1.00
C1       0.25000    0.64480    0.25000   1.00
C1       0.25000    0.75000    0.14480   1.00
O1       0.75000    0.25000    0.25000   1.00
Zn1      0.71720    0.28280    0.28280   1.00
Zn1      0.78280    0.21720    0.28280   1.00
Zn1      0.78280    0.28280    0.21720   1.00
Zn1      0.71720    0.21720    0.21720   1.00
O2       0.72650    0.27350    0.33820   1.00
O2       0.72650    0.33820    0.27350   1.00
O2       0.66180    0.27350    0.27350   1.00
O2       0.77350    0.22650    0.33820   1.00
O2       0.83820    0.22650    0.27350   1.00
O2       0.77350    0.16180    0.27350   1.00
O2       0.77350    0.33820    0.22650   1.00
O2       0.83820    0.27350    0.22650   1.00
O2       0.77350    0.27350    0.16180   1.00
O2       0.66180    0.22650    0.22650   1.00
O2       0.72650    0.16180    0.22650   1.00
O2       0.72650    0.22650    0.16180   1.00
C1       0.75000    0.25000    0.35520   1.00
C1       0.75000    0.35520    0.25000   1.00
C1       0.64480    0.25000    0.25000   1.00
C1       0.85520    0.25000    0.25000   1.00
C1       0.75000    0.14480    0.25000   1.00
C1       0.75000    0.25000    0.14480   1.00
O1       0.25000    0.25000    0.25000   1.00
Zn1      0.28280    0.21720    0.21720   1.00
Zn1      0.21720    0.28280    0.21720   1.00
Zn1      0.21720    0.21720    0.28280   1.00
Zn1      0.28280    0.28280    0.28280   1.00
O2       0.27350    0.22650    0.16180   1.00
O2       0.27350    0.16180    0.22650   1.00
O2       0.33820    0.22650    0.22650   1.00
O2       0.22650    0.27350    0.16180   1.00
O2       0.16180    0.27350    0.22650   1.00
O2       0.22650    0.33820    0.22650   1.00
O2       0.22650    0.16180    0.27350   1.00
O2       0.16180    0.22650    0.27350   1.00
O2       0.22650    0.22650    0.33820   1.00
O2       0.33820    0.27350    0.27350   1.00
O2       0.27350    0.33820    0.27350   1.00
O2       0.27350    0.27350    0.33820   1.00
C1       0.25000    0.25000    0.14480   1.00
C1       0.25000    0.14480    0.25000   1.00
C1       0.35520    0.25000    0.25000   1.00
C1       0.14480    0.25000    0.25000   1.00
C1       0.25000    0.35520    0.25000   1.00
C1       0.25000    0.25000    0.35520   1.00
O1       0.75000    0.75000    0.25000   1.00
Zn1      0.78280    0.71720    0.21720   1.00
Zn1      0.71720    0.78280    0.21720   1.00
Zn1      0.71720    0.71720    0.28280   1.00
Zn1      0.78280    0.78280    0.28280   1.00
O2       0.77350    0.72650    0.16180   1.00
O2       0.77350    0.66180    0.22650   1.00
O2       0.83820    0.72650    0.22650   1.00
O2       0.72650    0.77350    0.16180   1.00
O2       0.66180    0.77350    0.22650   1.00
O2       0.72650    0.83820    0.22650   1.00
O2       0.72650    0.66180    0.27350   1.00
O2       0.66180    0.72650    0.27350   1.00
O2       0.72650    0.72650    0.33820   1.00
O2       0.83820    0.77350    0.27350   1.00
O2       0.77350    0.83820    0.27350   1.00
O2       0.77350    0.77350    0.33820   1.00
C1       0.75000    0.75000    0.14480   1.00
C1       0.75000    0.64480    0.25000   1.00
C1       0.85520    0.75000    0.25000   1.00
C1       0.64480    0.75000    0.25000   1.00
C1       0.75000    0.85520    0.25000   1.00
C1       0.75000    0.75000    0.35520   1.00
O1       0.75000    0.25000    0.75000   1.00
Zn1      0.78280    0.21720    0.71720   1.00
Zn1      0.71720    0.28280    0.71720   1.00
Zn1      0.71720    0.21720    0.78280   1.00
Zn1      0.78280    0.28280    0.78280   1.00
O2       0.77350    0.22650    0.66180   1.00
O2       0.77350    0.16180    0.72650   1.00
O2       0.83820    0.22650    0.72650   1.00
O2       0.72650    0.27350    0.66180   1.00
O2       0.66180    0.27350    0.72650   1.00
O2       0.72650    0.33820    0.72650   1.00
O2       0.72650    0.16180    0.77350   1.00
O2       0.66180    0.22650    0.77350   1.00
O2       0.72650    0.22650    0.83820   1.00
O2       0.83820    0.27350    0.77350   1.00
O2       0.77350    0.33820    0.77350   1.00
O2       0.77350    0.27350    0.83820   1.00
C1       0.75000    0.25000    0.64480   1.00
C1       0.75000    0.14480    0.75000   1.00
C1       0.85520    0.25000    0.75000   1.00
C1       0.64480    0.25000    0.75000   1.00
C1       0.75000    0.35520    0.75000   1.00
C1       0.75000    0.25000    0.85520   1.00
O1       0.25000    0.75000    0.75000   1.00
Zn1      0.28280    0.71720    0.71720   1.00
Zn1      0.21720    0.78280    0.71720   1.00
Zn1      0.21720    0.71720    0.78280   1.00
Zn1      0.28280    0.78280    0.78280   1.00
O2       0.27350    0.72650    0.66180   1.00
O2       0.27350    0.66180    0.72650   1.00
O2       0.33820    0.72650    0.72650   1.00
O2       0.22650    0.77350    0.66180   1.00
O2       0.16180    0.77350    0.72650   1.00
O2       0.22650    0.83820    0.72650   1.00
O2       0.22650    0.66180    0.77350   1.00
O2       0.16180    0.72650    0.77350   1.00
O2       0.22650    0.72650    0.83820   1.00
O2       0.33820    0.77350    0.77350   1.00
O2       0.27350    0.83820    0.77350   1.00
O2       0.27350    0.77350    0.83820   1.00
C1       0.25000    0.75000    0.64480   1.00
C1       0.25000    0.64480    0.75000   1.00
C1       0.35520    0.75000    0.75000   1.00
C1       0.14480    0.75000    0.75000   1.00
C1       0.25000    0.85520    0.75000   1.00
C1       0.25000    0.75000    0.85520   1.00
O1       1.00000    1.00000    1.00000   1.00
Zn1      0.96720    1.03280    1.03280   1.00
Zn1      1.03280    0.96720    1.03280   1.00
Zn1      1.03280    1.03280    0.96720   1.00
Zn1      0.96720    0.96720    0.96720   1.00
O2       0.97650    1.02350    1.08820   1.00
O2       0.97650    1.08820    1.02350   1.00
O2       0.91180    1.02350    1.02350   1.00
O2       1.02350    0.97650    1.08820   1.00
O2       1.08820    0.97650    1.02350   1.00
O2       1.02350    0.91180    1.02350   1.00
O2       1.02350    1.08820    0.97650   1.00
O2       1.08820    1.02350    0.97650   1.00
O2       1.02350    1.02350    0.91180   1.00
O2       0.91180    0.97650    0.97650   1.00
O2       0.97650    0.91180    0.97650   1.00
O2       0.97650    0.97650    0.91180   1.00
C1       1.00000    1.00000    1.10520   1.00
C1       1.00000    1.10520    1.00000   1.00
C1       0.89480    1.00000    1.00000   1.00
C1       1.10520    1.00000    1.00000   1.00
C1       1.00000    0.89480    1.00000   1.00
C1       1.00000    1.00000    0.89480   1.00
O1       0.50000    0.50000    1.00000   1.00
Zn1      0.46720    0.53280    1.03280   1.00
Zn1      0.53280    0.46720    1.03280   1.00
Zn1      0.53280    0.53280    0.96720   1.00
Zn1      0.46720    0.46720    0.96720   1.00
O2       0.47650    0.52350    1.08820   1.00
O2       0.47650    0.58820    1.02350   1.00
O2       0.41180    0.52350    1.02350   1.00
O2       0.52350    0.47650    1.08820   1.00
O2       0.58820    0.47650    1.02350   1.00
O2       0.52350    0.41180    1.02350   1.00
O2       0.52350    0.58820    0.97650   1.00
O2       0.58820    0.52350    0.97650   1.00
O2       0.52350    0.52350    0.91180   1.00
O2       0.41180    0.47650    0.97650   1.00
O2       0.47650    0.41180    0.97650   1.00
O2       0.47650    0.47650    0.91180   1.00
C1       0.50000    0.50000    1.10520   1.00
C1       0.50000    0.60520    1.00000   1.00
C1       0.39480    0.50000    1.00000   1.00
C1       0.60520    0.50000    1.00000   1.00
C1       0.50000    0.39480    1.00000   1.00
C1       0.50000    0.50000    0.89480   1.00
O1       0.50000    1.00000    0.50000   1.00
Zn1      0.46720    1.03280    0.53280   1.00
Zn1      0.53280    0.96720    0.53280   1.00
Zn1      0.53280    1.03280    0.46720   1.00
Zn1      0.46720    0.96720    0.46720   1.00
O2       0.47650    1.02350    0.58820   1.00
O2       0.47650    1.08820    0.52350   1.00
O2       0.41180    1.02350    0.52350   1.00
O2       0.52350    0.97650    0.58820   1.00
O2       0.58820    0.97650    0.52350   1.00
O2       0.52350    0.91180    0.52350   1.00
O2       0.52350    1.08820    0.47650   1.00
O2       0.58820    1.02350    0.47650   1.00
O2       0.52350    1.02350    0.41180   1.00
O2       0.41180    0.97650    0.47650   1.00
O2       0.47650    0.91180    0.47650   1.00
O2       0.47650    0.97650    0.41180   1.00
C1       0.50000    1.00000    0.60520   1.00
C1       0.50000    1.10520    0.50000   1.00
C1       0.39480    1.00000    0.50000   1.00
C1       0.60520    1.00000    0.50000   1.00
C1       0.50000    0.89480    0.50000   1.00
C1       0.50000    1.00000    0.39480   1.00
O1       1.00000    0.50000    0.50000   1.00
Zn1      0.96720    0.53280    0.53280   1.00
Zn1      1.03280    0.46720    0.53280   1.00
Zn1      1.03280    0.53280    0.46720   1.00
Zn1      0.96720    0.46720    0.46720   1.00
O2       0.97650    0.52350    0.58820   1.00
O2       0.97650    0.58820    0.52350   1.00
O2       0.91180    0.52350    0.52350   1.00
O2       1.02350    0.47650    0.58820   1.00
O2       1.08820    0.47650    0.52350   1.00
O2       1.02350    0.41180    0.52350   1.00
O2       1.02350    0.58820    0.47650   1.00
O2       1.08820    0.52350    0.47650   1.00
O2       1.02350    0.52350    0.41180   1.00
O2       0.91180    0.47650    0.47650   1.00
O2       0.97650    0.41180    0.47650   1.00
O2       0.97650    0.47650    0.41180   1.00
C1       1.00000    0.50000    0.60520   1.00
C1       1.00000    0.60520    0.50000   1.00
C1       0.89480    0.50000    0.50000   1.00
C1       1.10520    0.50000    0.50000   1.00
C1       1.00000    0.39480    0.50000   1.00
C1       1.00000    0.50000    0.39480   1.00
O1       0.50000    0.50000    0.50000   1.00
Zn1      0.53280    0.46720    0.46720   1.00
Zn1      0.46720    0.53280    0.46720   1.00
Zn1      0.46720    0.46720    0.53280   1.00
Zn1      0.53280    0.53280    0.53280   1.00
O2       0.52350    0.47650    0.41180   1.00
O2       0.52350    0.41180    0.47650   1.00
O2       0.58820    0.47650    0.47650   1.00
O2       0.47650    0.52350    0.41180   1.00
O2       0.41180    0.52350    0.47650   1.00
O2       0.47650    0.58820    0.47650   1.00
O2       0.47650    0.41180    0.52350   1.00
O2       0.41180    0.47650    0.52350   1.00
O2       0.47650    0.47650    0.58820   1.00
O2       0.58820    0.52350    0.52350   1.00
O2       0.52350    0.58820    0.52350   1.00
O2       0.52350    0.52350    0.58820   1.00
C1       0.50000    0.50000    0.39480   1.00
C1       0.50000    0.39480    0.50000   1.00
C1       0.60520    0.50000    0.50000   1.00
C1       0.39480    0.50000    0.50000   1.00
C1       0.50000    0.60520    0.50000   1.00
C1       0.50000    0.50000    0.60520   1.00
O1       1.00000    1.00000    0.50000   1.00
Zn1      1.03280    0.96720    0.46720   1.00
Zn1      0.96720    1.03280    0.46720   1.00
Zn1      0.96720    0.96720    0.53280   1.00
Zn1      1.03280    1.03280    0.53280   1.00
O2       1.02350    0.97650    0.41180   1.00
O2       1.02350    0.91180    0.47650   1.00
O2       1.08820    0.97650    0.47650   1.00
O2       0.97650    1.02350    0.41180   1.00
O2       0.91180    1.02350    0.47650   1.00
O2       0.97650    1.08820    0.47650   1.00
O2       0.97650    0.91180    0.52350   1.00
O2       0.91180    0.97650    0.52350   1.00
O2       0.97650    0.97650    0.58820   1.00
O2       1.08820    1.02350    0.52350   1.00
O2       1.02350    1.08820    0.52350   1.00
O2       1.02350    1.02350    0.58820   1.00
C1       1.00000    1.00000    0.39480   1.00
C1       1.00000    0.89480    0.50000   1.00
C1       1.10520    1.00000    0.50000   1.00
C1       0.89480    1.00000    0.50000   1.00
C1       1.00000    1.10520    0.50000   1.00
C1       1.00000    1.00000    0.60520   1.00
O1       1.00000    0.50000    1.00000   1.00
Zn1      1.03280    0.46720    0.96720   1.00
Zn1      0.96720    0.53280    0.96720   1.00
Zn1      0.96720    0.46720    1.03280   1.00
Zn1      1.03280    0.53280    1.03280   1.00
O2       1.02350    0.47650    0.91180   1.00
O2       1.02350    0.41180    0.97650   1.00
O2       1.08820    0.47650    0.97650   1.00
O2       0.97650    0.52350    0.91180   1.00
O2       0.91180    0.52350    0.97650   1.00
O2       0.97650    0.58820    0.97650   1.00
O2       0.97650    0.41180    1.02350   1.00
O2       0.91180    0.47650    1.02350   1.00
O2       0.97650    0.47650    1.08820   1.00
O2       1.08820    0.52350    1.02350   1.00
O2       1.02350    0.58820    1.02350   1.00
O2       1.02350    0.52350    1.08820   1.00
C1       1.00000    0.50000    0.89480   1.00
C1       1.00000    0.39480    1.00000   1.00
C1       1.10520    0.50000    1.00000   1.00
C1       0.89480    0.50000    1.00000   1.00
C1       1.00000    0.60520    1.00000   1.00
C1       1.00000    0.50000    1.10520   1.00
O1       0.50000    1.00000    1.00000   1.00
Zn1      0.53280    0.96720    0.96720   1.00
Zn1      0.46720    1.03280    0.96720   1.00
Zn1      0.46720    0.96720    1.03280   1.00
Zn1      0.53280    1.03280    1.03280   1.00
O2       0.52350    0.97650    0.91180   1.00
O2       0.52350    0.91180    0.97650   1.00
O2       0.58820    0.97650    0.97650   1.00
O2       0.47650    1.02350    0.91180   1.00
O2       0.41180    1.02350    0.97650   1.00
O2       0.47650    1.08820    0.97650   1.00
O2       0.47650    0.91180    1.02350   1.00
O2       0.41180    0.97650    1.02350   1.00
O2       0.47650    0.97650    1.08820   1.00
O2       0.58820    1.02350    1.02350   1.00
O2       0.52350    1.08820    1.02350   1.00
O2       0.52350    1.02350    1.08820   1.00
C1       0.50000    1.00000    0.89480   1.00
C1       0.50000    0.89480    1.00000   1.00
C1       0.60520    1.00000    1.00000   1.00
C1       0.39480    1.00000    1.00000   1.00
C1       0.50000    1.10520    1.00000   1.00
C1       0.50000    1.00000    1.10520   1.00
C4       0.75070    0.74968    0.97917   1.00
C4       0.74930    0.75032    1.02083   1.00
C3       0.77058    0.71995    0.95846   1.00
C3       0.74469    0.71594    1.04321   1.00
C3       0.73142    0.77832    0.95643   1.00
C3       0.75346    0.78563    1.04187   1.00
C2       0.75180    0.74753    0.89487   1.00
C2       0.74831    0.75217    1.10514   1.00
C3       0.77111    0.71900    0.91715   1.00
C3       0.74416    0.71693    1.08449   1.00
C3       0.73202    0.77720    0.91514   1.00
C3a      0.75294    0.78675    1.08328   1.00
H1       0.78615    0.69746    0.97425   1.00
H1       0.74099    0.68810    1.02875   1.00
H1       0.78670    0.69583    0.90240   1.00
H1       0.74039    0.68999    1.10056   1.00
H1       0.71674    0.79952    0.89882   1.00
C5       0.75777    0.82529    1.10380   1.00
H1       0.75741    0.81275    1.02622   1.00
H1       0.71507    0.80135    0.97059   1.00
H2       0.75604    0.82165    1.13599   1.00
H2       0.78727    0.83698    1.09705   1.00
N1       0.72766    0.85284    1.09125   1.00
C6       0.68894    0.84870    1.09644   1.00
C6       0.73355    0.88707    1.07288   1.00
C6       0.66978    0.88055    1.08102   1.00
C6       0.69816    0.90496    1.06604   1.00
H3       0.67528    0.82390    1.11049   1.00
H3       0.76186    0.89853    1.06484   1.00
H3       0.63862    0.88545    1.08076   1.00
H3       0.69354    0.93272    1.05180   1.00
C4       0.74968    0.97917    0.75070   1.00
C4       0.75032    1.02083    0.74930   1.00
C3       0.71995    0.95846    0.77058   1.00
C3       0.71594    1.04321    0.74469   1.00
C3       0.77832    0.95643    0.73142   1.00
C3       0.78563    1.04187    0.75346   1.00
C2       0.74753    0.89487    0.75180   1.00
C2       0.75217    1.10514    0.74831   1.00
C3       0.71900    0.91715    0.77111   1.00
C3       0.71693    1.08449    0.74416   1.00
C3       0.77720    0.91514    0.73202   1.00
C3a      0.78675    1.08328    0.75294   1.00
H1       0.69746    0.97425    0.78615   1.00
H1       0.68810    1.02875    0.74099   1.00
H1       0.69583    0.90240    0.78670   1.00
H1       0.68999    1.10056    0.74039   1.00
H1       0.79952    0.89882    0.71674   1.00
C5       0.82529    1.10380    0.75777   1.00
H1       0.81275    1.02622    0.75741   1.00
H1       0.80135    0.97059    0.71507   1.00
H2       0.82165    1.13599    0.75604   1.00
H2       0.83698    1.09705    0.78727   1.00
N1       0.85284    1.09125    0.72766   1.00
C6       0.84870    1.09644    0.68894   1.00
C6       0.88707    1.07288    0.73355   1.00
C6       0.88055    1.08102    0.66978   1.00
C6       0.90496    1.06604    0.69816   1.00
H3       0.82390    1.11049    0.67528   1.00
H3       0.89853    1.06484    0.76186   1.00
H3       0.88545    1.08076    0.63862   1.00
H3       0.93272    1.05180    0.69354   1.00
C4       0.52083    0.75070    0.75032   1.00
C4       0.47917    0.74930    0.74968   1.00
C3       0.54154    0.77058    0.78005   1.00
C3       0.45679    0.74469    0.78406   1.00
C3       0.54357    0.73142    0.72168   1.00
C3       0.45813    0.75346    0.71437   1.00
C2       0.60513    0.75180    0.75247   1.00
C2       0.39486    0.74831    0.74783   1.00
C3       0.58285    0.77111    0.78100   1.00
C3       0.41551    0.74416    0.78307   1.00
C3       0.58486    0.73202    0.72280   1.00
C3a      0.41672    0.75294    0.71325   1.00
H1       0.52575    0.78615    0.80254   1.00
H1       0.47125    0.74099    0.81190   1.00
H1       0.59760    0.78670    0.80417   1.00
H1       0.39944    0.74039    0.81001   1.00
H1       0.60118    0.71674    0.70048   1.00
C5       0.39620    0.75777    0.67471   1.00
H1       0.47378    0.75741    0.68725   1.00
H1       0.52941    0.71507    0.69865   1.00
H2       0.36401    0.75604    0.67835   1.00
H2       0.40295    0.78727    0.66302   1.00
N1       0.40875    0.72766    0.64716   1.00
C6       0.40356    0.68894    0.65130   1.00
C6       0.42712    0.73355    0.61293   1.00
C6       0.41898    0.66978    0.61945   1.00
C6       0.43396    0.69816    0.59504   1.00
H3       0.38951    0.67528    0.67610   1.00
H3       0.43516    0.76186    0.60147   1.00
H3       0.41924    0.63862    0.61455   1.00
H3       0.44820    0.69354    0.56728   1.00
C4       0.97917    0.75070    0.74968   1.00
C4       1.02083    0.74930    0.75032   1.00
C3       0.95846    0.77058    0.71995   1.00
C3       1.04321    0.74469    0.71594   1.00
C3       0.95643    0.73142    0.77832   1.00
C3       1.04187    0.75346    0.78563   1.00
C2       0.89487    0.75180    0.74753   1.00
C2       1.10514    0.74831    0.75217   1.00
C3       0.91715    0.77111    0.71900   1.00
C3       1.08449    0.74416    0.71693   1.00
C3       0.91514    0.73202    0.77720   1.00
C3a      1.08328    0.75294    0.78675   1.00
H1       0.97425    0.78615    0.69746   1.00
H1       1.02875    0.74099    0.68810   1.00
H1       0.90240    0.78670    0.69583   1.00
H1       1.10056    0.74039    0.68999   1.00
H1       0.89882    0.71674    0.79952   1.00
C5       1.10380    0.75777    0.82529   1.00
H1       1.02622    0.75741    0.81275   1.00
H1       0.97059    0.71507    0.80135   1.00
H2       1.13599    0.75604    0.82165   1.00
H2       1.09705    0.78727    0.83698   1.00
N1       1.09125    0.72766    0.85284   1.00
C6       1.09644    0.68894    0.84870   1.00
C6       1.07288    0.73355    0.88707   1.00
C6       1.08102    0.66978    0.88055   1.00
C6       1.06604    0.69816    0.90496   1.00
H3       1.11049    0.67528    0.82390   1.00
H3       1.06484    0.76186    0.89853   1.00
H3       1.08076    0.63862    0.88545   1.00
H3       1.05180    0.69354    0.93272   1.00
C4       0.75032    0.52083    0.75070   1.00
C4       0.74968    0.47917    0.74930   1.00
C3       0.78005    0.54154    0.77058   1.00
C3       0.78406    0.45679    0.74469   1.00
C3       0.72168    0.54357    0.73142   1.00
C3       0.71437    0.45813    0.75346   1.00
C2       0.75247    0.60513    0.75180   1.00
C2       0.74783    0.39486    0.74831   1.00
C3       0.78100    0.58285    0.77111   1.00
C3       0.78307    0.41551    0.74416   1.00
C3       0.72280    0.58486    0.73202   1.00
C3a      0.71325    0.41672    0.75294   1.00
H1       0.80254    0.52575    0.78615   1.00
H1       0.81190    0.47125    0.74099   1.00
H1       0.80417    0.59760    0.78670   1.00
H1       0.81001    0.39944    0.74039   1.00
H1       0.70048    0.60118    0.71674   1.00
C5       0.67471    0.39620    0.75777   1.00
H1       0.68725    0.47378    0.75741   1.00
H1       0.69865    0.52941    0.71507   1.00
H2       0.67835    0.36401    0.75604   1.00
H2       0.66302    0.40295    0.78727   1.00
N1       0.64716    0.40875    0.72766   1.00
C6       0.65130    0.40356    0.68894   1.00
C6       0.61293    0.42712    0.73355   1.00
C6       0.61945    0.41898    0.66978   1.00
C6       0.59504    0.43396    0.69816   1.00
H3       0.67610    0.38951    0.67528   1.00
H3       0.60147    0.43516    0.76186   1.00
H3       0.61455    0.41924    0.63862   1.00
H3       0.56728    0.44820    0.69354   1.00
C4       0.75070    0.75032    0.52083   1.00
C4       0.74930    0.74968    0.47917   1.00
C3       0.77058    0.78005    0.54154   1.00
C3       0.74469    0.78406    0.45679   1.00
C3       0.73142    0.72168    0.54357   1.00
C3       0.75346    0.71437    0.45813   1.00
C2       0.75180    0.75247    0.60513   1.00
C2       0.74831    0.74783    0.39486   1.00
C3       0.77111    0.78100    0.58285   1.00
C3       0.74416    0.78307    0.41551   1.00
C3       0.73202    0.72280    0.58486   1.00
C3a      0.75294    0.71325    0.41672   1.00
H1       0.78615    0.80254    0.52575   1.00
H1       0.74099    0.81190    0.47125   1.00
H1       0.78670    0.80417    0.59760   1.00
H1       0.74039    0.81001    0.39944   1.00
H1       0.71674    0.70048    0.60118   1.00
C5       0.75777    0.67471    0.39620   1.00
H1       0.75741    0.68725    0.47378   1.00
H1       0.71507    0.69865    0.52941   1.00
H2       0.75604    0.67835    0.36401   1.00
H2       0.78727    0.66302    0.40295   1.00
N1       0.72766    0.64716    0.40875   1.00
C6       0.68894    0.65130    0.40356   1.00
C6       0.73355    0.61293    0.42712   1.00
C6       0.66978    0.61945    0.41898   1.00
C6       0.69816    0.59504    0.43396   1.00
H3       0.67528    0.67610    0.38951   1.00
H3       0.76186    0.60147    0.43516   1.00
H3       0.63862    0.61455    0.41924   1.00
H3       0.69354    0.56728    0.44820   1.00
C4       0.25070    0.24968    0.97917   1.00
C4       0.24930    0.25032    1.02083   1.00
C3       0.27058    0.21995    0.95846   1.00
C3       0.24469    0.21594    1.04321   1.00
C3       0.23142    0.27832    0.95643   1.00
C3       0.25346    0.28563    1.04187   1.00
C2       0.25180    0.24753    0.89487   1.00
C2       0.24831    0.25217    1.10514   1.00
C3       0.27111    0.21900    0.91715   1.00
C3       0.24416    0.21693    1.08449   1.00
C3       0.23202    0.27720    0.91514   1.00
C3a      0.25294    0.28675    1.08328   1.00
H1       0.28615    0.19746    0.97425   1.00
H1       0.24099    0.18810    1.02875   1.00
H1       0.28670    0.19583    0.90240   1.00
H1       0.24039    0.18999    1.10056   1.00
H1       0.21674    0.29952    0.89882   1.00
C5       0.25777    0.32529    1.10380   1.00
H1       0.25741    0.31275    1.02622   1.00
H1       0.21507    0.30135    0.97059   1.00
H2       0.25604    0.32165    1.13599   1.00
H2       0.28727    0.33698    1.09705   1.00
N1       0.22766    0.35284    1.09125   1.00
C6       0.18894    0.34870    1.09644   1.00
C6       0.23355    0.38707    1.07288   1.00
C6       0.16978    0.38055    1.08102   1.00
C6       0.19816    0.40496    1.06604   1.00
H3       0.17528    0.32390    1.11049   1.00
H3       0.26186    0.39853    1.06484   1.00
H3       0.13862    0.38545    1.08076   1.00
H3       0.19354    0.43272    1.05180   1.00
C4       0.24968    0.47917    0.75070   1.00
C4       0.25032    0.52083    0.74930   1.00
C3       0.21995    0.45846    0.77058   1.00
C3       0.21594    0.54321    0.74469   1.00
C3       0.27832    0.45643    0.73142   1.00
C3       0.28563    0.54187    0.75346   1.00
C2       0.24753    0.39487    0.75180   1.00
C2       0.25217    0.60514    0.74831   1.00
C3       0.21900    0.41715    0.77111   1.00
C3       0.21693    0.58449    0.74416   1.00
C3       0.27720    0.41514    0.73202   1.00
C3a      0.28675    0.58328    0.75294   1.00
H1       0.19746    0.47425    0.78615   1.00
H1       0.18810    0.52875    0.74099   1.00
H1       0.19583    0.40240    0.78670   1.00
H1       0.18999    0.60056    0.74039   1.00
H1       0.29952    0.39882    0.71674   1.00
C5       0.32529    0.60380    0.75777   1.00
H1       0.31275    0.52622    0.75741   1.00
H1       0.30135    0.47059    0.71507   1.00
H2       0.32165    0.63599    0.75604   1.00
H2       0.33698    0.59705    0.78727   1.00
N1       0.35284    0.59125    0.72766   1.00
C6       0.34870    0.59644    0.68894   1.00
C6       0.38707    0.57288    0.73355   1.00
C6       0.38055    0.58102    0.66978   1.00
C6       0.40496    0.56604    0.69816   1.00
H3       0.32390    0.61049    0.67528   1.00
H3       0.39853    0.56484    0.76186   1.00
H3       0.38545    0.58076    0.63862   1.00
H3       0.43272    0.55180    0.69354   1.00
C4       0.02083    0.25070    0.75032   1.00
C4       -0.02083   0.24930    0.74968   1.00
C3       0.04154    0.27058    0.78005   1.00
C3       -0.04321   0.24469    0.78406   1.00
C3       0.04357    0.23142    0.72168   1.00
C3       -0.04187   0.25346    0.71437   1.00
C2       0.10513    0.25180    0.75247   1.00
C2       -0.10514   0.24831    0.74783   1.00
C3       0.08285    0.27111    0.78100   1.00
C3       -0.08449   0.24416    0.78307   1.00
C3       0.08486    0.23202    0.72280   1.00
C3a      -0.08328   0.25294    0.71325   1.00
H1       0.02575    0.28615    0.80254   1.00
H1       -0.02875   0.24099    0.81190   1.00
H1       0.09760    0.28670    0.80417   1.00
H1       -0.10056   0.24039    0.81001   1.00
H1       0.10118    0.21674    0.70048   1.00
C5       -0.10380   0.25777    0.67471   1.00
H1       -0.02622   0.25741    0.68725   1.00
H1       0.02941    0.21507    0.69865   1.00
H2       -0.13599   0.25604    0.67835   1.00
H2       -0.09705   0.28727    0.66302   1.00
N1       -0.09125   0.22766    0.64716   1.00
C6       -0.09644   0.18894    0.65130   1.00
C6       -0.07288   0.23355    0.61293   1.00
C6       -0.08102   0.16978    0.61945   1.00
C6       -0.06604   0.19816    0.59504   1.00
H3       -0.11049   0.17528    0.67610   1.00
H3       -0.06484   0.26186    0.60147   1.00
H3       -0.08076   0.13862    0.61455   1.00
H3       -0.05180   0.19354    0.56728   1.00
C4       0.47917    0.25070    0.74968   1.00
C4       0.52083    0.24930    0.75032   1.00
C3       0.45846    0.27058    0.71995   1.00
C3       0.54321    0.24469    0.71594   1.00
C3       0.45643    0.23142    0.77832   1.00
C3       0.54187    0.25346    0.78563   1.00
C2       0.39487    0.25180    0.74753   1.00
C2       0.60514    0.24831    0.75217   1.00
C3       0.41715    0.27111    0.71900   1.00
C3       0.58449    0.24416    0.71693   1.00
C3       0.41514    0.23202    0.77720   1.00
C3a      0.58328    0.25294    0.78675   1.00
H1       0.47425    0.28615    0.69746   1.00
H1       0.52875    0.24099    0.68810   1.00
H1       0.40240    0.28670    0.69583   1.00
H1       0.60056    0.24039    0.68999   1.00
H1       0.39882    0.21674    0.79952   1.00
C5       0.60380    0.25777    0.82529   1.00
H1       0.52622    0.25741    0.81275   1.00
H1       0.47059    0.21507    0.80135   1.00
H2       0.63599    0.25604    0.82165   1.00
H2       0.59705    0.28727    0.83698   1.00
N1       0.59125    0.22766    0.85284   1.00
C6       0.59644    0.18894    0.84870   1.00
C6       0.57288    0.23355    0.88707   1.00
C6       0.58102    0.16978    0.88055   1.00
C6       0.56604    0.19816    0.90496   1.00
H3       0.61049    0.17528    0.82390   1.00
H3       0.56484    0.26186    0.89853   1.00
H3       0.58076    0.13862    0.88545   1.00
H3       0.55180    0.19354    0.93272   1.00
C4       0.25032    0.02083    0.75070   1.00
C4       0.24968    -0.02083   0.74930   1.00
C3       0.28005    0.04154    0.77058   1.00
C3       0.28406    -0.04321   0.74469   1.00
C3       0.22168    0.04357    0.73142   1.00
C3       0.21437    -0.04187   0.75346   1.00
C2       0.25247    0.10513    0.75180   1.00
C2       0.24783    -0.10514   0.74831   1.00
C3       0.28100    0.08285    0.77111   1.00
C3       0.28307    -0.08449   0.74416   1.00
C3       0.22280    0.08486    0.73202   1.00
C3a      0.21325    -0.08328   0.75294   1.00
H1       0.30254    0.02575    0.78615   1.00
H1       0.31190    -0.02875   0.74099   1.00
H1       0.30417    0.09760    0.78670   1.00
H1       0.31001    -0.10056   0.74039   1.00
H1       0.20048    0.10118    0.71674   1.00
C5       0.17471    -0.10380   0.75777   1.00
H1       0.18725    -0.02622   0.75741   1.00
H1       0.19865    0.02941    0.71507   1.00
H2       0.17835    -0.13599   0.75604   1.00
H2       0.16302    -0.09705   0.78727   1.00
N1       0.14716    -0.09125   0.72766   1.00
C6       0.15130    -0.09644   0.68894   1.00
C6       0.11293    -0.07288   0.73355   1.00
C6       0.11945    -0.08102   0.66978   1.00
C6       0.09504    -0.06604   0.69816   1.00
H3       0.17610    -0.11049   0.67528   1.00
H3       0.10147    -0.06484   0.76186   1.00
H3       0.11455    -0.08076   0.63862   1.00
H3       0.06728    -0.05180   0.69354   1.00
C4       0.25070    0.25032    0.52083   1.00
C4       0.24930    0.24968    0.47917   1.00
C3       0.27058    0.28005    0.54154   1.00
C3       0.24469    0.28406    0.45679   1.00
C3       0.23142    0.22168    0.54357   1.00
C3       0.25346    0.21437    0.45813   1.00
C2       0.25180    0.25247    0.60513   1.00
C2       0.24831    0.24783    0.39486   1.00
C3       0.27111    0.28100    0.58285   1.00
C3       0.24416    0.28307    0.41551   1.00
C3       0.23202    0.22280    0.58486   1.00
C3a      0.25294    0.21325    0.41672   1.00
H1       0.28615    0.30254    0.52575   1.00
H1       0.24099    0.31190    0.47125   1.00
H1       0.28670    0.30417    0.59760   1.00
H1       0.24039    0.31001    0.39944   1.00
H1       0.21674    0.20048    0.60118   1.00
C5       0.25777    0.17471    0.39620   1.00
H1       0.25741    0.18725    0.47378   1.00
H1       0.21507    0.19865    0.52941   1.00
H2       0.25604    0.17835    0.36401   1.00
H2       0.28727    0.16302    0.40295   1.00
N1       0.22766    0.14716    0.40875   1.00
C6       0.18894    0.15130    0.40356   1.00
C6       0.23355    0.11293    0.42712   1.00
C6       0.16978    0.11945    0.41898   1.00
C6       0.19816    0.09504    0.43396   1.00
H3       0.17528    0.17610    0.38951   1.00
H3       0.26186    0.10147    0.43516   1.00
H3       0.13862    0.11455    0.41924   1.00
H3       0.19354    0.06728    0.44820   1.00
C4       0.25070    0.74968    0.47917   1.00
C4       0.24930    0.75032    0.52083   1.00
C3       0.27058    0.71995    0.45846   1.00
C3       0.24469    0.71594    0.54321   1.00
C3       0.23142    0.77832    0.45643   1.00
C3       0.25346    0.78563    0.54187   1.00
C2       0.25180    0.74753    0.39487   1.00
C2       0.24831    0.75217    0.60514   1.00
C3       0.27111    0.71900    0.41715   1.00
C3       0.24416    0.71693    0.58449   1.00
C3       0.23202    0.77720    0.41514   1.00
C3a      0.25294    0.78675    0.58328   1.00
H1       0.28615    0.69746    0.47425   1.00
H1       0.24099    0.68810    0.52875   1.00
H1       0.28670    0.69583    0.40240   1.00
H1       0.24039    0.68999    0.60056   1.00
H1       0.21674    0.79952    0.39882   1.00
C5       0.25777    0.82529    0.60380   1.00
H1       0.25741    0.81275    0.52622   1.00
H1       0.21507    0.80135    0.47059   1.00
H2       0.25604    0.82165    0.63599   1.00
H2       0.28727    0.83698    0.59705   1.00
N1       0.22766    0.85284    0.59125   1.00
C6       0.18894    0.84870    0.59644   1.00
C6       0.23355    0.88707    0.57288   1.00
C6       0.16978    0.88055    0.58102   1.00
C6       0.19816    0.90496    0.56604   1.00
H3       0.17528    0.82390    0.61049   1.00
H3       0.26186    0.89853    0.56484   1.00
H3       0.13862    0.88545    0.58076   1.00
H3       0.19354    0.93272    0.55180   1.00
C4       0.24968    0.97917    0.25070   1.00
C4       0.25032    1.02083    0.24930   1.00
C3       0.21995    0.95846    0.27058   1.00
C3       0.21594    1.04321    0.24469   1.00
C3       0.27832    0.95643    0.23142   1.00
C3       0.28563    1.04187    0.25346   1.00
C2       0.24753    0.89487    0.25180   1.00
C2       0.25217    1.10514    0.24831   1.00
C3       0.21900    0.91715    0.27111   1.00
C3       0.21693    1.08449    0.24416   1.00
C3       0.27720    0.91514    0.23202   1.00
C3a      0.28675    1.08328    0.25294   1.00
H1       0.19746    0.97425    0.28615   1.00
H1       0.18810    1.02875    0.24099   1.00
H1       0.19583    0.90240    0.28670   1.00
H1       0.18999    1.10056    0.24039   1.00
H1       0.29952    0.89882    0.21674   1.00
C5       0.32529    1.10380    0.25777   1.00
H1       0.31275    1.02622    0.25741   1.00
H1       0.30135    0.97059    0.21507   1.00
H2       0.32165    1.13599    0.25604   1.00
H2       0.33698    1.09705    0.28727   1.00
N1       0.35284    1.09125    0.22766   1.00
C6       0.34870    1.09644    0.18894   1.00
C6       0.38707    1.07288    0.23355   1.00
C6       0.38055    1.08102    0.16978   1.00
C6       0.40496    1.06604    0.19816   1.00
H3       0.32390    1.11049    0.17528   1.00
H3       0.39853    1.06484    0.26186   1.00
H3       0.38545    1.08076    0.13862   1.00
H3       0.43272    1.05180    0.19354   1.00
C4       0.02083    0.75070    0.25032   1.00
C4       -0.02083   0.74930    0.24968   1.00
C3       0.04154    0.77058    0.28005   1.00
C3       -0.04321   0.74469    0.28406   1.00
C3       0.04357    0.73142    0.22168   1.00
C3       -0.04187   0.75346    0.21437   1.00
C2       0.10513    0.75180    0.25247   1.00
C2       -0.10514   0.74831    0.24783   1.00
C3       0.08285    0.77111    0.28100   1.00
C3       -0.08449   0.74416    0.28307   1.00
C3       0.08486    0.73202    0.22280   1.00
C3a      -0.08328   0.75294    0.21325   1.00
H1       0.02575    0.78615    0.30254   1.00
H1       -0.02875   0.74099    0.31190   1.00
H1       0.09760    0.78670    0.30417   1.00
H1       -0.10056   0.74039    0.31001   1.00
H1       0.10118    0.71674    0.20048   1.00
C5       -0.10380   0.75777    0.17471   1.00
H1       -0.02622   0.75741    0.18725   1.00
H1       0.02941    0.71507    0.19865   1.00
H2       -0.13599   0.75604    0.17835   1.00
H2       -0.09705   0.78727    0.16302   1.00
N1       -0.09125   0.72766    0.14716   1.00
C6       -0.09644   0.68894    0.15130   1.00
C6       -0.07288   0.73355    0.11293   1.00
C6       -0.08102   0.66978    0.11945   1.00
C6       -0.06604   0.69816    0.09504   1.00
H3       -0.11049   0.67528    0.17610   1.00
H3       -0.06484   0.76186    0.10147   1.00
H3       -0.08076   0.63862    0.11455   1.00
H3       -0.05180   0.69354    0.06728   1.00
C4       0.47917    0.75070    0.24968   1.00
C4       0.52083    0.74930    0.25032   1.00
C3       0.45846    0.77058    0.21995   1.00
C3       0.54321    0.74469    0.21594   1.00
C3       0.45643    0.73142    0.27832   1.00
C3       0.54187    0.75346    0.28563   1.00
C2       0.39487    0.75180    0.24753   1.00
C2       0.60514    0.74831    0.25217   1.00
C3       0.41715    0.77111    0.21900   1.00
C3       0.58449    0.74416    0.21693   1.00
C3       0.41514    0.73202    0.27720   1.00
C3a      0.58328    0.75294    0.28675   1.00
H1       0.47425    0.78615    0.19746   1.00
H1       0.52875    0.74099    0.18810   1.00
H1       0.40240    0.78670    0.19583   1.00
H1       0.60056    0.74039    0.18999   1.00
H1       0.39882    0.71674    0.29952   1.00
C5       0.60380    0.75777    0.32529   1.00
H1       0.52622    0.75741    0.31275   1.00
H1       0.47059    0.71507    0.30135   1.00
H2       0.63599    0.75604    0.32165   1.00
H2       0.59705    0.78727    0.33698   1.00
N1       0.59125    0.72766    0.35284   1.00
C6       0.59644    0.68894    0.34870   1.00
C6       0.57288    0.73355    0.38707   1.00
C6       0.58102    0.66978    0.38055   1.00
C6       0.56604    0.69816    0.40496   1.00
H3       0.61049    0.67528    0.32390   1.00
H3       0.56484    0.76186    0.39853   1.00
H3       0.58076    0.63862    0.38545   1.00
H3       0.55180    0.69354    0.43272   1.00
C4       0.25032    0.52083    0.25070   1.00
C4       0.24968    0.47917    0.24930   1.00
C3       0.28005    0.54154    0.27058   1.00
C3       0.28406    0.45679    0.24469   1.00
C3       0.22168    0.54357    0.23142   1.00
C3       0.21437    0.45813    0.25346   1.00
C2       0.25247    0.60513    0.25180   1.00
C2       0.24783    0.39486    0.24831   1.00
C3       0.28100    0.58285    0.27111   1.00
C3       0.28307    0.41551    0.24416   1.00
C3       0.22280    0.58486    0.23202   1.00
C3a      0.21325    0.41672    0.25294   1.00
H1       0.30254    0.52575    0.28615   1.00
H1       0.31190    0.47125    0.24099   1.00
H1       0.30417    0.59760    0.28670   1.00
H1       0.31001    0.39944    0.24039   1.00
H1       0.20048    0.60118    0.21674   1.00
C5       0.17471    0.39620    0.25777   1.00
H1       0.18725    0.47378    0.25741   1.00
H1       0.19865    0.52941    0.21507   1.00
H2       0.17835    0.36401    0.25604   1.00
H2       0.16302    0.40295    0.28727   1.00
N1       0.14716    0.40875    0.22766   1.00
C6       0.15130    0.40356    0.18894   1.00
C6       0.11293    0.42712    0.23355   1.00
C6       0.11945    0.41898    0.16978   1.00
C6       0.09504    0.43396    0.19816   1.00
H3       0.17610    0.38951    0.17528   1.00
H3       0.10147    0.43516    0.26186   1.00
H3       0.11455    0.41924    0.13862   1.00
H3       0.06728    0.44820    0.19354   1.00
C4       0.25070    0.75032    0.02083   1.00
C4       0.24930    0.74968    -0.02083   1.00
C3       0.27058    0.78005    0.04154   1.00
C3       0.24469    0.78406    -0.04321   1.00
C3       0.23142    0.72168    0.04357   1.00
C3       0.25346    0.71437    -0.04187   1.00
C2       0.25180    0.75247    0.10513   1.00
C2       0.24831    0.74783    -0.10514   1.00
C3       0.27111    0.78100    0.08285   1.00
C3       0.24416    0.78307    -0.08449   1.00
C3       0.23202    0.72280    0.08486   1.00
C3a      0.25294    0.71325    -0.08328   1.00
H1       0.28615    0.80254    0.02575   1.00
H1       0.24099    0.81190    -0.02875   1.00
H1       0.28670    0.80417    0.09760   1.00
H1       0.24039    0.81001    -0.10056   1.00
H1       0.21674    0.70048    0.10118   1.00
C5       0.25777    0.67471    -0.10380   1.00
H1       0.25741    0.68725    -0.02622   1.00
H1       0.21507    0.69865    0.02941   1.00
H2       0.25604    0.67835    -0.13599   1.00
H2       0.28727    0.66302    -0.09705   1.00
N1       0.22766    0.64716    -0.09125   1.00
C6       0.18894    0.65130    -0.09644   1.00
C6       0.23355    0.61293    -0.07288   1.00
C6       0.16978    0.61945    -0.08102   1.00
C6       0.19816    0.59504    -0.06604   1.00
H3       0.17528    0.67610    -0.11049   1.00
H3       0.26186    0.60147    -0.06484   1.00
H3       0.13862    0.61455    -0.08076   1.00
H3       0.19354    0.56728    -0.05180   1.00
C4       0.75070    0.24968    0.47917   1.00
C4       0.74930    0.25032    0.52083   1.00
C3       0.77058    0.21995    0.45846   1.00
C3       0.74469    0.21594    0.54321   1.00
C3       0.73142    0.27832    0.45643   1.00
C3       0.75346    0.28563    0.54187   1.00
C2       0.75180    0.24753    0.39487   1.00
C2       0.74831    0.25217    0.60514   1.00
C3       0.77111    0.21900    0.41715   1.00
C3       0.74416    0.21693    0.58449   1.00
C3       0.73202    0.27720    0.41514   1.00
C3a      0.75294    0.28675    0.58328   1.00
H1       0.78615    0.19746    0.47425   1.00
H1       0.74099    0.18810    0.52875   1.00
H1       0.78670    0.19583    0.40240   1.00
H1       0.74039    0.18999    0.60056   1.00
H1       0.71674    0.29952    0.39882   1.00
C5       0.75777    0.32529    0.60380   1.00
H1       0.75741    0.31275    0.52622   1.00
H1       0.71507    0.30135    0.47059   1.00
H2       0.75604    0.32165    0.63599   1.00
H2       0.78727    0.33698    0.59705   1.00
N1       0.72766    0.35284    0.59125   1.00
C6       0.68894    0.34870    0.59644   1.00
C6       0.73355    0.38707    0.57288   1.00
C6       0.66978    0.38055    0.58102   1.00
C6       0.69816    0.40496    0.56604   1.00
H3       0.67528    0.32390    0.61049   1.00
H3       0.76186    0.39853    0.56484   1.00
H3       0.63862    0.38545    0.58076   1.00
H3       0.69354    0.43272    0.55180   1.00
C4       0.74968    0.47917    0.25070   1.00
C4       0.75032    0.52083    0.24930   1.00
C3       0.71995    0.45846    0.27058   1.00
C3       0.71594    0.54321    0.24469   1.00
C3       0.77832    0.45643    0.23142   1.00
C3       0.78563    0.54187    0.25346   1.00
C2       0.74753    0.39487    0.25180   1.00
C2       0.75217    0.60514    0.24831   1.00
C3       0.71900    0.41715    0.27111   1.00
C3       0.71693    0.58449    0.24416   1.00
C3       0.77720    0.41514    0.23202   1.00
C3a      0.78675    0.58328    0.25294   1.00
H1       0.69746    0.47425    0.28615   1.00
H1       0.68810    0.52875    0.24099   1.00
H1       0.69583    0.40240    0.28670   1.00
H1       0.68999    0.60056    0.24039   1.00
H1       0.79952    0.39882    0.21674   1.00
C5       0.82529    0.60380    0.25777   1.00
H1       0.81275    0.52622    0.25741   1.00
H1       0.80135    0.47059    0.21507   1.00
H2       0.82165    0.63599    0.25604   1.00
H2       0.83698    0.59705    0.28727   1.00
N1       0.85284    0.59125    0.22766   1.00
C6       0.84870    0.59644    0.18894   1.00
C6       0.88707    0.57288    0.23355   1.00
C6       0.88055    0.58102    0.16978   1.00
C6       0.90496    0.56604    0.19816   1.00
H3       0.82390    0.61049    0.17528   1.00
H3       0.89853    0.56484    0.26186   1.00
H3       0.88545    0.58076    0.13862   1.00
H3       0.93272    0.55180    0.19354   1.00
C4       0.52083    0.25070    0.25032   1.00
C4       0.47917    0.24930    0.24968   1.00
C3       0.54154    0.27058    0.28005   1.00
C3       0.45679    0.24469    0.28406   1.00
C3       0.54357    0.23142    0.22168   1.00
C3       0.45813    0.25346    0.21437   1.00
C2       0.60513    0.25180    0.25247   1.00
C2       0.39486    0.24831    0.24783   1.00
C3       0.58285    0.27111    0.28100   1.00
C3       0.41551    0.24416    0.28307   1.00
C3       0.58486    0.23202    0.22280   1.00
C3a      0.41672    0.25294    0.21325   1.00
H1       0.52575    0.28615    0.30254   1.00
H1       0.47125    0.24099    0.31190   1.00
H1       0.59760    0.28670    0.30417   1.00
H1       0.39944    0.24039    0.31001   1.00
H1       0.60118    0.21674    0.20048   1.00
C5       0.39620    0.25777    0.17471   1.00
H1       0.47378    0.25741    0.18725   1.00
H1       0.52941    0.21507    0.19865   1.00
H2       0.36401    0.25604    0.17835   1.00
H2       0.40295    0.28727    0.16302   1.00
N1       0.40875    0.22766    0.14716   1.00
C6       0.40356    0.18894    0.15130   1.00
C6       0.42712    0.23355    0.11293   1.00
C6       0.41898    0.16978    0.11945   1.00
C6       0.43396    0.19816    0.09504   1.00
H3       0.38951    0.17528    0.17610   1.00
H3       0.43516    0.26186    0.10147   1.00
H3       0.41924    0.13862    0.11455   1.00
H3       0.44820    0.19354    0.06728   1.00
C4       0.97917    0.25070    0.24968   1.00
C4       1.02083    0.24930    0.25032   1.00
C3       0.95846    0.27058    0.21995   1.00
C3       1.04321    0.24469    0.21594   1.00
C3       0.95643    0.23142    0.27832   1.00
C3       1.04187    0.25346    0.28563   1.00
C2       0.89487    0.25180    0.24753   1.00
C2       1.10514    0.24831    0.25217   1.00
C3       0.91715    0.27111    0.21900   1.00
C3       1.08449    0.24416    0.21693   1.00
C3       0.91514    0.23202    0.27720   1.00
C3a      1.08328    0.25294    0.28675   1.00
H1       0.97425    0.28615    0.19746   1.00
H1       1.02875    0.24099    0.18810   1.00
H1       0.90240    0.28670    0.19583   1.00
H1       1.10056    0.24039    0.18999   1.00
H1       0.89882    0.21674    0.29952   1.00
C5       1.10380    0.25777    0.32529   1.00
H1       1.02622    0.25741    0.31275   1.00
H1       0.97059    0.21507    0.30135   1.00
H2       1.13599    0.25604    0.32165   1.00
H2       1.09705    0.28727    0.33698   1.00
N1       1.09125    0.22766    0.35284   1.00
C6       1.09644    0.18894    0.34870   1.00
C6       1.07288    0.23355    0.38707   1.00
C6       1.08102    0.16978    0.38055   1.00
C6       1.06604    0.19816    0.40496   1.00
H3       1.11049    0.17528    0.32390   1.00
H3       1.06484    0.26186    0.39853   1.00
H3       1.08076    0.13862    0.38545   1.00
H3       1.05180    0.19354    0.43272   1.00
C4       0.75032    0.02083    0.25070   1.00
C4       0.74968    -0.02083   0.24930   1.00
C3       0.78005    0.04154    0.27058   1.00
C3       0.78406    -0.04321   0.24469   1.00
C3       0.72168    0.04357    0.23142   1.00
C3       0.71437    -0.04187   0.25346   1.00
C2       0.75247    0.10513    0.25180   1.00
C2       0.74783    -0.10514   0.24831   1.00
C3       0.78100    0.08285    0.27111   1.00
C3       0.78307    -0.08449   0.24416   1.00
C3       0.72280    0.08486    0.23202   1.00
C3a      0.71325    -0.08328   0.25294   1.00
H1       0.80254    0.02575    0.28615   1.00
H1       0.81190    -0.02875   0.24099   1.00
H1       0.80417    0.09760    0.28670   1.00
H1       0.81001    -0.10056   0.24039   1.00
H1       0.70048    0.10118    0.21674   1.00
C5       0.67471    -0.10380   0.25777   1.00
H1       0.68725    -0.02622   0.25741   1.00
H1       0.69865    0.02941    0.21507   1.00
H2       0.67835    -0.13599   0.25604   1.00
H2       0.66302    -0.09705   0.28727   1.00
N1       0.64716    -0.09125   0.22766   1.00
C6       0.65130    -0.09644   0.18894   1.00
C6       0.61293    -0.07288   0.23355   1.00
C6       0.61945    -0.08102   0.16978   1.00
C6       0.59504    -0.06604   0.19816   1.00
H3       0.67610    -0.11049   0.17528   1.00
H3       0.60147    -0.06484   0.26186   1.00
H3       0.61455    -0.08076   0.13862   1.00
H3       0.56728    -0.05180   0.19354   1.00
C4       0.75070    0.25032    0.02083   1.00
C4       0.74930    0.24968    -0.02083   1.00
C3       0.77058    0.28005    0.04154   1.00
C3       0.74469    0.28406    -0.04321   1.00
C3       0.73142    0.22168    0.04357   1.00
C3       0.75346    0.21437    -0.04187   1.00
C2       0.75180    0.25247    0.10513   1.00
C2       0.74831    0.24783    -0.10514   1.00
C3       0.77111    0.28100    0.08285   1.00
C3       0.74416    0.28307    -0.08449   1.00
C3       0.73202    0.22280    0.08486   1.00
C3a      0.75294    0.21325    -0.08328   1.00
H1       0.78615    0.30254    0.02575   1.00
H1       0.74099    0.31190    -0.02875   1.00
H1       0.78670    0.30417    0.09760   1.00
H1       0.74039    0.31001    -0.10056   1.00
H1       0.71674    0.20048    0.10118   1.00
C5       0.75777    0.17471    -0.10380   1.00
H1       0.75741    0.18725    -0.02622   1.00
H1       0.71507    0.19865    0.02941   1.00
H2       0.75604    0.17835    -0.13599   1.00
H2       0.78727    0.16302    -0.09705   1.00
N1       0.72766    0.14716    -0.09125   1.00
C6       0.68894    0.15130    -0.09644   1.00
C6       0.73355    0.11293    -0.07288   1.00
C6       0.66978    0.11945    -0.08102   1.00
C6       0.69816    0.09504    -0.06604   1.00
H3       0.67528    0.17610    -0.11049   1.00
H3       0.76186    0.10147    -0.06484   1.00
H3       0.63862    0.11455    -0.08076   1.00
H3       0.69354    0.06728    -0.05180   1.00
C4       1.00070    0.99968    1.22917   1.00
C4       0.99930    1.00032    1.27083   1.00
C3       1.02058    0.96995    1.20846   1.00
C3       0.99469    0.96594    1.29321   1.00
C3       0.98142    1.02832    1.20643   1.00
C3       1.00346    1.03563    1.29187   1.00
C2       1.00180    0.99753    1.14487   1.00
C2       0.99831    1.00217    1.35514   1.00
C3       1.02111    0.96900    1.16715   1.00
C3       0.99416    0.96693    1.33449   1.00
C3       0.98202    1.02720    1.16514   1.00
C3a      1.00294    1.03675    1.33328   1.00
H1       1.03615    0.94746    1.22425   1.00
H1       0.99099    0.93810    1.27875   1.00
H1       1.03670    0.94583    1.15240   1.00
H1       0.99039    0.93999    1.35056   1.00
H1       0.96674    1.04952    1.14882   1.00
C5       1.00777    1.07529    1.35380   1.00
H1       1.00741    1.06275    1.27622   1.00
H1       0.96507    1.05135    1.22059   1.00
H2       1.00604    1.07165    1.38599   1.00
H2       1.03727    1.08698    1.34705   1.00
N1       0.97766    1.10284    1.34125   1.00
C6       0.93894    1.09870    1.34644   1.00
C6       0.98355    1.13707    1.32288   1.00
C6       0.91978    1.13055    1.33102   1.00
C6       0.94816    1.15496    1.31604   1.00
H3       0.92528    1.07390    1.36049   1.00
H3       1.01186    1.14853    1.31484   1.00
H3       0.88862    1.13545    1.33076   1.00
H3       0.94354    1.18272    1.30180   1.00
C4       0.99968    1.22917    1.00070   1.00
C4       1.00032    1.27083    0.99930   1.00
C3       0.96995    1.20846    1.02058   1.00
C3       0.96594    1.29321    0.99469   1.00
C3       1.02832    1.20643    0.98142   1.00
C3       1.03563    1.29187    1.00346   1.00
C2       0.99753    1.14487    1.00180   1.00
C2       1.00217    1.35514    0.99831   1.00
C3       0.96900    1.16715    1.02111   1.00
C3       0.96693    1.33449    0.99416   1.00
C3       1.02720    1.16514    0.98202   1.00
C3a      1.03675    1.33328    1.00294   1.00
H1       0.94746    1.22425    1.03615   1.00
H1       0.93810    1.27875    0.99099   1.00
H1       0.94583    1.15240    1.03670   1.00
H1       0.93999    1.35056    0.99039   1.00
H1       1.04952    1.14882    0.96674   1.00
C5       1.07529    1.35380    1.00777   1.00
H1       1.06275    1.27622    1.00741   1.00
H1       1.05135    1.22059    0.96507   1.00
H2       1.07165    1.38599    1.00604   1.00
H2       1.08698    1.34705    1.03727   1.00
N1       1.10284    1.34125    0.97766   1.00
C6       1.09870    1.34644    0.93894   1.00
C6       1.13707    1.32288    0.98355   1.00
C6       1.13055    1.33102    0.91978   1.00
C6       1.15496    1.31604    0.94816   1.00
H3       1.07390    1.36049    0.92528   1.00
H3       1.14853    1.31484    1.01186   1.00
H3       1.13545    1.33076    0.88862   1.00
H3       1.18272    1.30180    0.94354   1.00
C4       0.77083    1.00070    1.00032   1.00
C4       0.72917    0.99930    0.99968   1.00
C3       0.79154    1.02058    1.03005   1.00
C3       0.70679    0.99469    1.03406   1.00
C3       0.79357    0.98142    0.97168   1.00
C3       0.70813    1.00346    0.96437   1.00
C2       0.85513    1.00180    1.00247   1.00
C2       0.64486    0.99831    0.99783   1.00
C3       0.83285    1.02111    1.03100   1.00
C3       0.66551    0.99416    1.03307   1.00
C3       0.83486    0.98202    0.97280   1.00
C3a      0.66672    1.00294    0.96325   1.00
H1       0.77575    1.03615    1.05254   1.00
H1       0.72125    0.99099    1.06190   1.00
H1       0.84760    1.03670    1.05417   1.00
H1       0.64944    0.99039    1.06001   1.00
H1       0.85118    0.96674    0.95048   1.00
C5       0.64620    1.00777    0.92471   1.00
H1       0.72378    1.00741    0.93725   1.00
H1       0.77941    0.96507    0.94865   1.00
H2       0.61401    1.00604    0.92835   1.00
H2       0.65295    1.03727    0.91302   1.00
N1       0.65875    0.97766    0.89716   1.00
C6       0.65356    0.93894    0.90130   1.00
C6       0.67712    0.98355    0.86293   1.00
C6       0.66898    0.91978    0.86945   1.00
C6       0.68396    0.94816    0.84504   1.00
H3       0.63951    0.92528    0.92610   1.00
H3       0.68516    1.01186    0.85147   1.00
H3       0.66924    0.88862    0.86455   1.00
H3       0.69820    0.94354    0.81728   1.00
C4       1.22917    1.00070    0.99968   1.00
C4       1.27083    0.99930    1.00032   1.00
C3       1.20846    1.02058    0.96995   1.00
C3       1.29321    0.99469    0.96594   1.00
C3       1.20643    0.98142    1.02832   1.00
C3       1.29187    1.00346    1.03563   1.00
C2       1.14487    1.00180    0.99753   1.00
C2       1.35514    0.99831    1.00217   1.00
C3       1.16715    1.02111    0.96900   1.00
C3       1.33449    0.99416    0.96693   1.00
C3       1.16514    0.98202    1.02720   1.00
C3a      1.33328    1.00294    1.03675   1.00
H1       1.22425    1.03615    0.94746   1.00
H1       1.27875    0.99099    0.93810   1.00
H1       1.15240    1.03670    0.94583   1.00
H1       1.35056    0.99039    0.93999   1.00
H1       1.14882    0.96674    1.04952   1.00
C5       1.35380    1.00777    1.07529   1.00
H1       1.27622    1.00741    1.06275   1.00
H1       1.22059    0.96507    1.05135   1.00
H2       1.38599    1.00604    1.07165   1.00
H2       1.34705    1.03727    1.08698   1.00
N1       1.34125    0.97766    1.10284   1.00
C6       1.34644    0.93894    1.09870   1.00
C6       1.32288    0.98355    1.13707   1.00
C6       1.33102    0.91978    1.13055   1.00
C6       1.31604    0.94816    1.15496   1.00
H3       1.36049    0.92528    1.07390   1.00
H3       1.31484    1.01186    1.14853   1.00
H3       1.33076    0.88862    1.13545   1.00
H3       1.30180    0.94354    1.18272   1.00
C4       1.00032    0.77083    1.00070   1.00
C4       0.99968    0.72917    0.99930   1.00
C3       1.03005    0.79154    1.02058   1.00
C3       1.03406    0.70679    0.99469   1.00
C3       0.97168    0.79357    0.98142   1.00
C3       0.96437    0.70813    1.00346   1.00
C2       1.00247    0.85513    1.00180   1.00
C2       0.99783    0.64486    0.99831   1.00
C3       1.03100    0.83285    1.02111   1.00
C3       1.03307    0.66551    0.99416   1.00
C3       0.97280    0.83486    0.98202   1.00
C3a      0.96325    0.66672    1.00294   1.00
H1       1.05254    0.77575    1.03615   1.00
H1       1.06190    0.72125    0.99099   1.00
H1       1.05417    0.84760    1.03670   1.00
H1       1.06001    0.64944    0.99039   1.00
H1       0.95048    0.85118    0.96674   1.00
C5       0.92471    0.64620    1.00777   1.00
H1       0.93725    0.72378    1.00741   1.00
H1       0.94865    0.77941    0.96507   1.00
H2       0.92835    0.61401    1.00604   1.00
H2       0.91302    0.65295    1.03727   1.00
N1       0.89716    0.65875    0.97766   1.00
C6       0.90130    0.65356    0.93894   1.00
C6       0.86293    0.67712    0.98355   1.00
C6       0.86945    0.66898    0.91978   1.00
C6       0.84504    0.68396    0.94816   1.00
H3       0.92610    0.63951    0.92528   1.00
H3       0.85147    0.68516    1.01186   1.00
H3       0.86455    0.66924    0.88862   1.00
H3       0.81728    0.69820    0.94354   1.00
C4       1.00070    1.00032    0.77083   1.00
C4       0.99930    0.99968    0.72917   1.00
C3       1.02058    1.03005    0.79154   1.00
C3       0.99469    1.03406    0.70679   1.00
C3       0.98142    0.97168    0.79357   1.00
C3       1.00346    0.96437    0.70813   1.00
C2       1.00180    1.00247    0.85513   1.00
C2       0.99831    0.99783    0.64486   1.00
C3       1.02111    1.03100    0.83285   1.00
C3       0.99416    1.03307    0.66551   1.00
C3       0.98202    0.97280    0.83486   1.00
C3a      1.00294    0.96325    0.66672   1.00
H1       1.03615    1.05254    0.77575   1.00
H1       0.99099    1.06190    0.72125   1.00
H1       1.03670    1.05417    0.84760   1.00
H1       0.99039    1.06001    0.64944   1.00
H1       0.96674    0.95048    0.85118   1.00
C5       1.00777    0.92471    0.64620   1.00
H1       1.00741    0.93725    0.72378   1.00
H1       0.96507    0.94865    0.77941   1.00
H2       1.00604    0.92835    0.61401   1.00
H2       1.03727    0.91302    0.65295   1.00
N1       0.97766    0.89716    0.65875   1.00
C6       0.93894    0.90130    0.65356   1.00
C6       0.98355    0.86293    0.67712   1.00
C6       0.91978    0.86945    0.66898   1.00
C6       0.94816    0.84504    0.68396   1.00
H3       0.92528    0.92610    0.63951   1.00
H3       1.01186    0.85147    0.68516   1.00
H3       0.88862    0.86455    0.66924   1.00
H3       0.94354    0.81728    0.69820   1.00
C4       0.50070    0.49968    1.22917   1.00
C4       0.49930    0.50032    1.27083   1.00
C3       0.52058    0.46995    1.20846   1.00
C3       0.49469    0.46594    1.29321   1.00
C3       0.48142    0.52832    1.20643   1.00
C3       0.50346    0.53563    1.29187   1.00
C2       0.50180    0.49753    1.14487   1.00
C2       0.49831    0.50217    1.35514   1.00
C3       0.52111    0.46900    1.16715   1.00
C3       0.49416    0.46693    1.33449   1.00
C3       0.48202    0.52720    1.16514   1.00
C3a      0.50294    0.53675    1.33328   1.00
H1       0.53615    0.44746    1.22425   1.00
H1       0.49099    0.43810    1.27875   1.00
H1       0.53670    0.44583    1.15240   1.00
H1       0.49039    0.43999    1.35056   1.00
H1       0.46674    0.54952    1.14882   1.00
C5       0.50777    0.57529    1.35380   1.00
H1       0.50741    0.56275    1.27622   1.00
H1       0.46507    0.55135    1.22059   1.00
H2       0.50604    0.57165    1.38599   1.00
H2       0.53727    0.58698    1.34705   1.00
N1       0.47766    0.60284    1.34125   1.00
C6       0.43894    0.59870    1.34644   1.00
C6       0.48355    0.63707    1.32288   1.00
C6       0.41978    0.63055    1.33102   1.00
C6       0.44816    0.65496    1.31604   1.00
H3       0.42528    0.57390    1.36049   1.00
H3       0.51186    0.64853    1.31484   1.00
H3       0.38862    0.63545    1.33076   1.00
H3       0.44354    0.68272    1.30180   1.00
C4       0.49968    0.72917    1.00070   1.00
C4       0.50032    0.77083    0.99930   1.00
C3       0.46995    0.70846    1.02058   1.00
C3       0.46594    0.79321    0.99469   1.00
C3       0.52832    0.70643    0.98142   1.00
C3       0.53563    0.79187    1.00346   1.00
C2       0.49753    0.64487    1.00180   1.00
C2       0.50217    0.85514    0.99831   1.00
C3       0.46900    0.66715    1.02111   1.00
C3       0.46693    0.83449    0.99416   1.00
C3       0.52720    0.66514    0.98202   1.00
C3a      0.53675    0.83328    1.00294   1.00
H1       0.44746    0.72425    1.03615   1.00
H1       0.43810    0.77875    0.99099   1.00
H1       0.44583    0.65240    1.03670   1.00
H1       0.43999    0.85056    0.99039   1.00
H1       0.54952    0.64882    0.96674   1.00
C5       0.57529    0.85380    1.00777   1.00
H1       0.56275    0.77622    1.00741   1.00
H1       0.55135    0.72059    0.96507   1.00
H2       0.57165    0.88599    1.00604   1.00
H2       0.58698    0.84705    1.03727   1.00
N1       0.60284    0.84125    0.97766   1.00
C6       0.59870    0.84644    0.93894   1.00
C6       0.63707    0.82288    0.98355   1.00
C6       0.63055    0.83102    0.91978   1.00
C6       0.65496    0.81604    0.94816   1.00
H3       0.57390    0.86049    0.92528   1.00
H3       0.64853    0.81484    1.01186   1.00
H3       0.63545    0.83076    0.88862   1.00
H3       0.68272    0.80180    0.94354   1.00
C4       0.27083    0.50070    1.00032   1.00
C4       0.22917    0.49930    0.99968   1.00
C3       0.29154    0.52058    1.03005   1.00
C3       0.20679    0.49469    1.03406   1.00
C3       0.29357    0.48142    0.97168   1.00
C3       0.20813    0.50346    0.96437   1.00
C2       0.35513    0.50180    1.00247   1.00
C2       0.14486    0.49831    0.99783   1.00
C3       0.33285    0.52111    1.03100   1.00
C3       0.16551    0.49416    1.03307   1.00
C3       0.33486    0.48202    0.97280   1.00
C3a      0.16672    0.50294    0.96325   1.00
H1       0.27575    0.53615    1.05254   1.00
H1       0.22125    0.49099    1.06190   1.00
H1       0.34760    0.53670    1.05417   1.00
H1       0.14944    0.49039    1.06001   1.00
H1       0.35118    0.46674    0.95048   1.00
C5       0.14620    0.50777    0.92471   1.00
H1       0.22378    0.50741    0.93725   1.00
H1       0.27941    0.46507    0.94865   1.00
H2       0.11401    0.50604    0.92835   1.00
H2       0.15295    0.53727    0.91302   1.00
N1       0.15875    0.47766    0.89716   1.00
C6       0.15356    0.43894    0.90130   1.00
C6       0.17712    0.48355    0.86293   1.00
C6       0.16898    0.41978    0.86945   1.00
C6       0.18396    0.44816    0.84504   1.00
H3       0.13951    0.42528    0.92610   1.00
H3       0.18516    0.51186    0.85147   1.00
H3       0.16924    0.38862    0.86455   1.00
H3       0.19820    0.44354    0.81728   1.00
C4       0.72917    0.50070    0.99968   1.00
C4       0.77083    0.49930    1.00032   1.00
C3       0.70846    0.52058    0.96995   1.00
C3       0.79321    0.49469    0.96594   1.00
C3       0.70643    0.48142    1.02832   1.00
C3       0.79187    0.50346    1.03563   1.00
C2       0.64487    0.50180    0.99753   1.00
C2       0.85514    0.49831    1.00217   1.00
C3       0.66715    0.52111    0.96900   1.00
C3       0.83449    0.49416    0.96693   1.00
C3       0.66514    0.48202    1.02720   1.00
C3a      0.83328    0.50294    1.03675   1.00
H1       0.72425    0.53615    0.94746   1.00
H1       0.77875    0.49099    0.93810   1.00
H1       0.65240    0.53670    0.94583   1.00
H1       0.85056    0.49039    0.93999   1.00
H1       0.64882    0.46674    1.04952   1.00
C5       0.85380    0.50777    1.07529   1.00
H1       0.77622    0.50741    1.06275   1.00
H1       0.72059    0.46507    1.05135   1.00
H2       0.88599    0.50604    1.07165   1.00
H2       0.84705    0.53727    1.08698   1.00
N1       0.84125    0.47766    1.10284   1.00
C6       0.84644    0.43894    1.09870   1.00
C6       0.82288    0.48355    1.13707   1.00
C6       0.83102    0.41978    1.13055   1.00
C6       0.81604    0.44816    1.15496   1.00
H3       0.86049    0.42528    1.07390   1.00
H3       0.81484    0.51186    1.14853   1.00
H3       0.83076    0.38862    1.13545   1.00
H3       0.80180    0.44354    1.18272   1.00
C4       0.50032    0.27083    1.00070   1.00
C4       0.49968    0.22917    0.99930   1.00
C3       0.53005    0.29154    1.02058   1.00
C3       0.53406    0.20679    0.99469   1.00
C3       0.47168    0.29357    0.98142   1.00
C3       0.46437    0.20813    1.00346   1.00
C2       0.50247    0.35513    1.00180   1.00
C2       0.49783    0.14486    0.99831   1.00
C3       0.53100    0.33285    1.02111   1.00
C3       0.53307    0.16551    0.99416   1.00
C3       0.47280    0.33486    0.98202   1.00
C3a      0.46325    0.16672    1.00294   1.00
H1       0.55254    0.27575    1.03615   1.00
H1       0.56190    0.22125    0.99099   1.00
H1       0.55417    0.34760    1.03670   1.00
H1       0.56001    0.14944    0.99039   1.00
H1       0.45048    0.35118    0.96674   1.00
C5       0.42471    0.14620    1.00777   1.00
H1       0.43725    0.22378    1.00741   1.00
H1       0.44865    0.27941    0.96507   1.00
H2       0.42835    0.11401    1.00604   1.00
H2       0.41302    0.15295    1.03727   1.00
N1       0.39716    0.15875    0.97766   1.00
C6       0.40130    0.15356    0.93894   1.00
C6       0.36293    0.17712    0.98355   1.00
C6       0.36945    0.16898    0.91978   1.00
C6       0.34504    0.18396    0.94816   1.00
H3       0.42610    0.13951    0.92528   1.00
H3       0.35147    0.18516    1.01186   1.00
H3       0.36455    0.16924    0.88862   1.00
H3       0.31728    0.19820    0.94354   1.00
C4       0.50070    0.50032    0.77083   1.00
C4       0.49930    0.49968    0.72917   1.00
C3       0.52058    0.53005    0.79154   1.00
C3       0.49469    0.53406    0.70679   1.00
C3       0.48142    0.47168    0.79357   1.00
C3       0.50346    0.46437    0.70813   1.00
C2       0.50180    0.50247    0.85513   1.00
C2       0.49831    0.49783    0.64486   1.00
C3       0.52111    0.53100    0.83285   1.00
C3       0.49416    0.53307    0.66551   1.00
C3       0.48202    0.47280    0.83486   1.00
C3a      0.50294    0.46325    0.66672   1.00
H1       0.53615    0.55254    0.77575   1.00
H1       0.49099    0.56190    0.72125   1.00
H1       0.53670    0.55417    0.84760   1.00
H1       0.49039    0.56001    0.64944   1.00
H1       0.46674    0.45048    0.85118   1.00
C5       0.50777    0.42471    0.64620   1.00
H1       0.50741    0.43725    0.72378   1.00
H1       0.46507    0.44865    0.77941   1.00
H2       0.50604    0.42835    0.61401   1.00
H2       0.53727    0.41302    0.65295   1.00
N1       0.47766    0.39716    0.65875   1.00
C6       0.43894    0.40130    0.65356   1.00
C6       0.48355    0.36293    0.67712   1.00
C6       0.41978    0.36945    0.66898   1.00
C6       0.44816    0.34504    0.68396   1.00
H3       0.42528    0.42610    0.63951   1.00
H3       0.51186    0.35147    0.68516   1.00
H3       0.38862    0.36455    0.66924   1.00
H3       0.44354    0.31728    0.69820   1.00
C4       0.50070    0.99968    0.72917   1.00
C4       0.49930    1.00032    0.77083   1.00
C3       0.52058    0.96995    0.70846   1.00
C3       0.49469    0.96594    0.79321   1.00
C3       0.48142    1.02832    0.70643   1.00
C3       0.50346    1.03563    0.79187   1.00
C2       0.50180    0.99753    0.64487   1.00
C2       0.49831    1.00217    0.85514   1.00
C3       0.52111    0.96900    0.66715   1.00
C3       0.49416    0.96693    0.83449   1.00
C3       0.48202    1.02720    0.66514   1.00
C3a      0.50294    1.03675    0.83328   1.00
H1       0.53615    0.94746    0.72425   1.00
H1       0.49099    0.93810    0.77875   1.00
H1       0.53670    0.94583    0.65240   1.00
H1       0.49039    0.93999    0.85056   1.00
H1       0.46674    1.04952    0.64882   1.00
C5       0.50777    1.07529    0.85380   1.00
H1       0.50741    1.06275    0.77622   1.00
H1       0.46507    1.05135    0.72059   1.00
H2       0.50604    1.07165    0.88599   1.00
H2       0.53727    1.08698    0.84705   1.00
N1       0.47766    1.10284    0.84125   1.00
C6       0.43894    1.09870    0.84644   1.00
C6       0.48355    1.13707    0.82288   1.00
C6       0.41978    1.13055    0.83102   1.00
C6       0.44816    1.15496    0.81604   1.00
H3       0.42528    1.07390    0.86049   1.00
H3       0.51186    1.14853    0.81484   1.00
H3       0.38862    1.13545    0.83076   1.00
H3       0.44354    1.18272    0.80180   1.00
C4       0.49968    1.22917    0.50070   1.00
C4       0.50032    1.27083    0.49930   1.00
C3       0.46995    1.20846    0.52058   1.00
C3       0.46594    1.29321    0.49469   1.00
C3       0.52832    1.20643    0.48142   1.00
C3       0.53563    1.29187    0.50346   1.00
C2       0.49753    1.14487    0.50180   1.00
C2       0.50217    1.35514    0.49831   1.00
C3       0.46900    1.16715    0.52111   1.00
C3       0.46693    1.33449    0.49416   1.00
C3       0.52720    1.16514    0.48202   1.00
C3a      0.53675    1.33328    0.50294   1.00
H1       0.44746    1.22425    0.53615   1.00
H1       0.43810    1.27875    0.49099   1.00
H1       0.44583    1.15240    0.53670   1.00
H1       0.43999    1.35056    0.49039   1.00
H1       0.54952    1.14882    0.46674   1.00
C5       0.57529    1.35380    0.50777   1.00
H1       0.56275    1.27622    0.50741   1.00
H1       0.55135    1.22059    0.46507   1.00
H2       0.57165    1.38599    0.50604   1.00
H2       0.58698    1.34705    0.53727   1.00
N1       0.60284    1.34125    0.47766   1.00
C6       0.59870    1.34644    0.43894   1.00
C6       0.63707    1.32288    0.48355   1.00
C6       0.63055    1.33102    0.41978   1.00
C6       0.65496    1.31604    0.44816   1.00
H3       0.57390    1.36049    0.42528   1.00
H3       0.64853    1.31484    0.51186   1.00
H3       0.63545    1.33076    0.38862   1.00
H3       0.68272    1.30180    0.44354   1.00
C4       0.27083    1.00070    0.50032   1.00
C4       0.22917    0.99930    0.49968   1.00
C3       0.29154    1.02058    0.53005   1.00
C3       0.20679    0.99469    0.53406   1.00
C3       0.29357    0.98142    0.47168   1.00
C3       0.20813    1.00346    0.46437   1.00
C2       0.35513    1.00180    0.50247   1.00
C2       0.14486    0.99831    0.49783   1.00
C3       0.33285    1.02111    0.53100   1.00
C3       0.16551    0.99416    0.53307   1.00
C3       0.33486    0.98202    0.47280   1.00
C3a      0.16672    1.00294    0.46325   1.00
H1       0.27575    1.03615    0.55254   1.00
H1       0.22125    0.99099    0.56190   1.00
H1       0.34760    1.03670    0.55417   1.00
H1       0.14944    0.99039    0.56001   1.00
H1       0.35118    0.96674    0.45048   1.00
C5       0.14620    1.00777    0.42471   1.00
H1       0.22378    1.00741    0.43725   1.00
H1       0.27941    0.96507    0.44865   1.00
H2       0.11401    1.00604    0.42835   1.00
H2       0.15295    1.03727    0.41302   1.00
N1       0.15875    0.97766    0.39716   1.00
C6       0.15356    0.93894    0.40130   1.00
C6       0.17712    0.98355    0.36293   1.00
C6       0.16898    0.91978    0.36945   1.00
C6       0.18396    0.94816    0.34504   1.00
H3       0.13951    0.92528    0.42610   1.00
H3       0.18516    1.01186    0.35147   1.00
H3       0.16924    0.88862    0.36455   1.00
H3       0.19820    0.94354    0.31728   1.00
C4       0.72917    1.00070    0.49968   1.00
C4       0.77083    0.99930    0.50032   1.00
C3       0.70846    1.02058    0.46995   1.00
C3       0.79321    0.99469    0.46594   1.00
C3       0.70643    0.98142    0.52832   1.00
C3       0.79187    1.00346    0.53563   1.00
C2       0.64487    1.00180    0.49753   1.00
C2       0.85514    0.99831    0.50217   1.00
C3       0.66715    1.02111    0.46900   1.00
C3       0.83449    0.99416    0.46693   1.00
C3       0.66514    0.98202    0.52720   1.00
C3a      0.83328    1.00294    0.53675   1.00
H1       0.72425    1.03615    0.44746   1.00
H1       0.77875    0.99099    0.43810   1.00
H1       0.65240    1.03670    0.44583   1.00
H1       0.85056    0.99039    0.43999   1.00
H1       0.64882    0.96674    0.54952   1.00
C5       0.85380    1.00777    0.57529   1.00
H1       0.77622    1.00741    0.56275   1.00
H1       0.72059    0.96507    0.55135   1.00
H2       0.88599    1.00604    0.57165   1.00
H2       0.84705    1.03727    0.58698   1.00
N1       0.84125    0.97766    0.60284   1.00
C6       0.84644    0.93894    0.59870   1.00
C6       0.82288    0.98355    0.63707   1.00
C6       0.83102    0.91978    0.63055   1.00
C6       0.81604    0.94816    0.65496   1.00
H3       0.86049    0.92528    0.57390   1.00
H3       0.81484    1.01186    0.64853   1.00
H3       0.83076    0.88862    0.63545   1.00
H3       0.80180    0.94354    0.68272   1.00
C4       0.50032    0.77083    0.50070   1.00
C4       0.49968    0.72917    0.49930   1.00
C3       0.53005    0.79154    0.52058   1.00
C3       0.53406    0.70679    0.49469   1.00
C3       0.47168    0.79357    0.48142   1.00
C3       0.46437    0.70813    0.50346   1.00
C2       0.50247    0.85513    0.50180   1.00
C2       0.49783    0.64486    0.49831   1.00
C3       0.53100    0.83285    0.52111   1.00
C3       0.53307    0.66551    0.49416   1.00
C3       0.47280    0.83486    0.48202   1.00
C3a      0.46325    0.66672    0.50294   1.00
H1       0.55254    0.77575    0.53615   1.00
H1       0.56190    0.72125    0.49099   1.00
H1       0.55417    0.84760    0.53670   1.00
H1       0.56001    0.64944    0.49039   1.00
H1       0.45048    0.85118    0.46674   1.00
C5       0.42471    0.64620    0.50777   1.00
H1       0.43725    0.72378    0.50741   1.00
H1       0.44865    0.77941    0.46507   1.00
H2       0.42835    0.61401    0.50604   1.00
H2       0.41302    0.65295    0.53727   1.00
N1       0.39716    0.65875    0.47766   1.00
C6       0.40130    0.65356    0.43894   1.00
C6       0.36293    0.67712    0.48355   1.00
C6       0.36945    0.66898    0.41978   1.00
C6       0.34504    0.68396    0.44816   1.00
H3       0.42610    0.63951    0.42528   1.00
H3       0.35147    0.68516    0.51186   1.00
H3       0.36455    0.66924    0.38862   1.00
H3       0.31728    0.69820    0.44354   1.00
C4       0.50070    1.00032    0.27083   1.00
C4       0.49930    0.99968    0.22917   1.00
C3       0.52058    1.03005    0.29154   1.00
C3       0.49469    1.03406    0.20679   1.00
C3       0.48142    0.97168    0.29357   1.00
C3       0.50346    0.96437    0.20813   1.00
C2       0.50180    1.00247    0.35513   1.00
C2       0.49831    0.99783    0.14486   1.00
C3       0.52111    1.03100    0.33285   1.00
C3       0.49416    1.03307    0.16551   1.00
C3       0.48202    0.97280    0.33486   1.00
C3a      0.50294    0.96325    0.16672   1.00
H1       0.53615    1.05254    0.27575   1.00
H1       0.49099    1.06190    0.22125   1.00
H1       0.53670    1.05417    0.34760   1.00
H1       0.49039    1.06001    0.14944   1.00
H1       0.46674    0.95048    0.35118   1.00
C5       0.50777    0.92471    0.14620   1.00
H1       0.50741    0.93725    0.22378   1.00
H1       0.46507    0.94865    0.27941   1.00
H2       0.50604    0.92835    0.11401   1.00
H2       0.53727    0.91302    0.15295   1.00
N1       0.47766    0.89716    0.15875   1.00
C6       0.43894    0.90130    0.15356   1.00
C6       0.48355    0.86293    0.17712   1.00
C6       0.41978    0.86945    0.16898   1.00
C6       0.44816    0.84504    0.18396   1.00
H3       0.42528    0.92610    0.13951   1.00
H3       0.51186    0.85147    0.18516   1.00
H3       0.38862    0.86455    0.16924   1.00
H3       0.44354    0.81728    0.19820   1.00
C4       1.00070    0.49968    0.72917   1.00
C4       0.99930    0.50032    0.77083   1.00
C3       1.02058    0.46995    0.70846   1.00
C3       0.99469    0.46594    0.79321   1.00
C3       0.98142    0.52832    0.70643   1.00
C3       1.00346    0.53563    0.79187   1.00
C2       1.00180    0.49753    0.64487   1.00
C2       0.99831    0.50217    0.85514   1.00
C3       1.02111    0.46900    0.66715   1.00
C3       0.99416    0.46693    0.83449   1.00
C3       0.98202    0.52720    0.66514   1.00
C3a      1.00294    0.53675    0.83328   1.00
H1       1.03615    0.44746    0.72425   1.00
H1       0.99099    0.43810    0.77875   1.00
H1       1.03670    0.44583    0.65240   1.00
H1       0.99039    0.43999    0.85056   1.00
H1       0.96674    0.54952    0.64882   1.00
C5       1.00777    0.57529    0.85380   1.00
H1       1.00741    0.56275    0.77622   1.00
H1       0.96507    0.55135    0.72059   1.00
H2       1.00604    0.57165    0.88599   1.00
H2       1.03727    0.58698    0.84705   1.00
N1       0.97766    0.60284    0.84125   1.00
C6       0.93894    0.59870    0.84644   1.00
C6       0.98355    0.63707    0.82288   1.00
C6       0.91978    0.63055    0.83102   1.00
C6       0.94816    0.65496    0.81604   1.00
H3       0.92528    0.57390    0.86049   1.00
H3       1.01186    0.64853    0.81484   1.00
H3       0.88862    0.63545    0.83076   1.00
H3       0.94354    0.68272    0.80180   1.00
C4       0.99968    0.72917    0.50070   1.00
C4       1.00032    0.77083    0.49930   1.00
C3       0.96995    0.70846    0.52058   1.00
C3       0.96594    0.79321    0.49469   1.00
C3       1.02832    0.70643    0.48142   1.00
C3       1.03563    0.79187    0.50346   1.00
C2       0.99753    0.64487    0.50180   1.00
C2       1.00217    0.85514    0.49831   1.00
C3       0.96900    0.66715    0.52111   1.00
C3       0.96693    0.83449    0.49416   1.00
C3       1.02720    0.66514    0.48202   1.00
C3a      1.03675    0.83328    0.50294   1.00
H1       0.94746    0.72425    0.53615   1.00
H1       0.93810    0.77875    0.49099   1.00
H1       0.94583    0.65240    0.53670   1.00
H1       0.93999    0.85056    0.49039   1.00
H1       1.04952    0.64882    0.46674   1.00
C5       1.07529    0.85380    0.50777   1.00
H1       1.06275    0.77622    0.50741   1.00
H1       1.05135    0.72059    0.46507   1.00
H2       1.07165    0.88599    0.50604   1.00
H2       1.08698    0.84705    0.53727   1.00
N1       1.10284    0.84125    0.47766   1.00
C6       1.09870    0.84644    0.43894   1.00
C6       1.13707    0.82288    0.48355   1.00
C6       1.13055    0.83102    0.41978   1.00
C6       1.15496    0.81604    0.44816   1.00
H3       1.07390    0.86049    0.42528   1.00
H3       1.14853    0.81484    0.51186   1.00
H3       1.13545    0.83076    0.38862   1.00
H3       1.18272    0.80180    0.44354   1.00
C4       0.77083    0.50070    0.50032   1.00
C4       0.72917    0.49930    0.49968   1.00
C3       0.79154    0.52058    0.53005   1.00
C3       0.70679    0.49469    0.53406   1.00
C3       0.79357    0.48142    0.47168   1.00
C3       0.70813    0.50346    0.46437   1.00
C2       0.85513    0.50180    0.50247   1.00
C2       0.64486    0.49831    0.49783   1.00
C3       0.83285    0.52111    0.53100   1.00
C3       0.66551    0.49416    0.53307   1.00
C3       0.83486    0.48202    0.47280   1.00
C3a      0.66672    0.50294    0.46325   1.00
H1       0.77575    0.53615    0.55254   1.00
H1       0.72125    0.49099    0.56190   1.00
H1       0.84760    0.53670    0.55417   1.00
H1       0.64944    0.49039    0.56001   1.00
H1       0.85118    0.46674    0.45048   1.00
C5       0.64620    0.50777    0.42471   1.00
H1       0.72378    0.50741    0.43725   1.00
H1       0.77941    0.46507    0.44865   1.00
H2       0.61401    0.50604    0.42835   1.00
H2       0.65295    0.53727    0.41302   1.00
N1       0.65875    0.47766    0.39716   1.00
C6       0.65356    0.43894    0.40130   1.00
C6       0.67712    0.48355    0.36293   1.00
C6       0.66898    0.41978    0.36945   1.00
C6       0.68396    0.44816    0.34504   1.00
H3       0.63951    0.42528    0.42610   1.00
H3       0.68516    0.51186    0.35147   1.00
H3       0.66924    0.38862    0.36455   1.00
H3       0.69820    0.44354    0.31728   1.00
C4       1.22917    0.50070    0.49968   1.00
C4       1.27083    0.49930    0.50032   1.00
C3       1.20846    0.52058    0.46995   1.00
C3       1.29321    0.49469    0.46594   1.00
C3       1.20643    0.48142    0.52832   1.00
C3       1.29187    0.50346    0.53563   1.00
C2       1.14487    0.50180    0.49753   1.00
C2       1.35514    0.49831    0.50217   1.00
C3       1.16715    0.52111    0.46900   1.00
C3       1.33449    0.49416    0.46693   1.00
C3       1.16514    0.48202    0.52720   1.00
C3a      1.33328    0.50294    0.53675   1.00
H1       1.22425    0.53615    0.44746   1.00
H1       1.27875    0.49099    0.43810   1.00
H1       1.15240    0.53670    0.44583   1.00
H1       1.35056    0.49039    0.43999   1.00
H1       1.14882    0.46674    0.54952   1.00
C5       1.35380    0.50777    0.57529   1.00
H1       1.27622    0.50741    0.56275   1.00
H1       1.22059    0.46507    0.55135   1.00
H2       1.38599    0.50604    0.57165   1.00
H2       1.34705    0.53727    0.58698   1.00
N1       1.34125    0.47766    0.60284   1.00
C6       1.34644    0.43894    0.59870   1.00
C6       1.32288    0.48355    0.63707   1.00
C6       1.33102    0.41978    0.63055   1.00
C6       1.31604    0.44816    0.65496   1.00
H3       1.36049    0.42528    0.57390   1.00
H3       1.31484    0.51186    0.64853   1.00
H3       1.33076    0.38862    0.63545   1.00
H3       1.30180    0.44354    0.68272   1.00
C4       1.00032    0.27083    0.50070   1.00
C4       0.99968    0.22917    0.49930   1.00
C3       1.03005    0.29154    0.52058   1.00
C3       1.03406    0.20679    0.49469   1.00
C3       0.97168    0.29357    0.48142   1.00
C3       0.96437    0.20813    0.50346   1.00
C2       1.00247    0.35513    0.50180   1.00
C2       0.99783    0.14486    0.49831   1.00
C3       1.03100    0.33285    0.52111   1.00
C3       1.03307    0.16551    0.49416   1.00
C3       0.97280    0.33486    0.48202   1.00
C3a      0.96325    0.16672    0.50294   1.00
H1       1.05254    0.27575    0.53615   1.00
H1       1.06190    0.22125    0.49099   1.00
H1       1.05417    0.34760    0.53670   1.00
H1       1.06001    0.14944    0.49039   1.00
H1       0.95048    0.35118    0.46674   1.00
C5       0.92471    0.14620    0.50777   1.00
H1       0.93725    0.22378    0.50741   1.00
H1       0.94865    0.27941    0.46507   1.00
H2       0.92835    0.11401    0.50604   1.00
H2       0.91302    0.15295    0.53727   1.00
N1       0.89716    0.15875    0.47766   1.00
C6       0.90130    0.15356    0.43894   1.00
C6       0.86293    0.17712    0.48355   1.00
C6       0.86945    0.16898    0.41978   1.00
C6       0.84504    0.18396    0.44816   1.00
H3       0.92610    0.13951    0.42528   1.00
H3       0.85147    0.18516    0.51186   1.00
H3       0.86455    0.16924    0.38862   1.00
H3       0.81728    0.19820    0.44354   1.00
C4       1.00070    0.50032    0.27083   1.00
C4       0.99930    0.49968    0.22917   1.00
C3       1.02058    0.53005    0.29154   1.00
C3       0.99469    0.53406    0.20679   1.00
C3       0.98142    0.47168    0.29357   1.00
C3       1.00346    0.46437    0.20813   1.00
C2       1.00180    0.50247    0.35513   1.00
C2       0.99831    0.49783    0.14486   1.00
C3       1.02111    0.53100    0.33285   1.00
C3       0.99416    0.53307    0.16551   1.00
C3       0.98202    0.47280    0.33486   1.00
C3a      1.00294    0.46325    0.16672   1.00
H1       1.03615    0.55254    0.27575   1.00
H1       0.99099    0.56190    0.22125   1.00
H1       1.03670    0.55417    0.34760   1.00
H1       0.99039    0.56001    0.14944   1.00
H1       0.96674    0.45048    0.35118   1.00
C5       1.00777    0.42471    0.14620   1.00
H1       1.00741    0.43725    0.22378   1.00
H1       0.96507    0.44865    0.27941   1.00
H2       1.00604    0.42835    0.11401   1.00
H2       1.03727    0.41302    0.15295   1.00
N1       0.97766    0.39716    0.15875   1.00
C6       0.93894    0.40130    0.15356   1.00
C6       0.98355    0.36293    0.17712   1.00
C6       0.91978    0.36945    0.16898   1.00
C6       0.94816    0.34504    0.18396   1.00
H3       0.92528    0.42610    0.13951   1.00
H3       1.01186    0.35147    0.18516   1.00
H3       0.88862    0.36455    0.16924   1.00
H3       0.94354    0.31728    0.19820   1.00
