data_IRMOF10_SG202_interpen_Ligand10lp_label_y.

_audit_creation_method             'generated by an auxiliary program of Tobunporous'

_symmetry_space_group_name_H-M     'P 1'
_symmetry_Int_Tables_number        1
_symmetry_cell_setting             triclinic

_cell_length_a                    34.2800
_cell_length_b                    34.2800
_cell_length_c                    34.2800
_cell_angle_alpha                 90.0000
_cell_angle_beta                  90.0000
_cell_angle_gamma                 90.0000

loop_
_atom_site_label
_atom_site_fract_x
_atom_site_fract_y
_atom_site_fract_z
_atom_site_occupancy
O1       0.75000    0.75000    0.75000   1.00
Zn1      0.71720    0.78280    0.78280   1.00
Zn1      0.78280    0.71720    0.78280   1.00
Zn1      0.78280    0.78280    0.71720   1.00
Zn1      0.71720    0.71720    0.71720   1.00
O2       0.72650    0.77350    0.83820   1.00
O2       0.72650    0.83820    0.77350   1.00
O2       0.66180    0.77350    0.77350   1.00
O2       0.77350    0.72650    0.83820   1.00
O2       0.83820    0.72650    0.77350   1.00
O2       0.77350    0.66180    0.77350   1.00
O2       0.77350    0.83820    0.72650   1.00
O2       0.83820    0.77350    0.72650   1.00
O2       0.77350    0.77350    0.66180   1.00
O2       0.66180    0.72650    0.72650   1.00
O2       0.72650    0.66180    0.72650   1.00
O2       0.72650    0.72650    0.66180   1.00
C1       0.75000    0.75000    0.85520   1.00
C1       0.75000    0.85520    0.75000   1.00
C1       0.64480    0.75000    0.75000   1.00
C1       0.85520    0.75000    0.75000   1.00
C1       0.75000    0.64480    0.75000   1.00
C1       0.75000    0.75000    0.64480   1.00
O1       0.25000    0.25000    0.75000   1.00
Zn1      0.21720    0.28280    0.78280   1.00
Zn1      0.28280    0.21720    0.78280   1.00
Zn1      0.28280    0.28280    0.71720   1.00
Zn1      0.21720    0.21720    0.71720   1.00
O2       0.22650    0.27350    0.83820   1.00
O2       0.22650    0.33820    0.77350   1.00
O2       0.16180    0.27350    0.77350   1.00
O2       0.27350    0.22650    0.83820   1.00
O2       0.33820    0.22650    0.77350   1.00
O2       0.27350    0.16180    0.77350   1.00
O2       0.27350    0.33820    0.72650   1.00
O2       0.33820    0.27350    0.72650   1.00
O2       0.27350    0.27350    0.66180   1.00
O2       0.16180    0.22650    0.72650   1.00
O2       0.22650    0.16180    0.72650   1.00
O2       0.22650    0.22650    0.66180   1.00
C1       0.25000    0.25000    0.85520   1.00
C1       0.25000    0.35520    0.75000   1.00
C1       0.14480    0.25000    0.75000   1.00
C1       0.35520    0.25000    0.75000   1.00
C1       0.25000    0.14480    0.75000   1.00
C1       0.25000    0.25000    0.64480   1.00
O1       0.25000    0.75000    0.25000   1.00
Zn1      0.21720    0.78280    0.28280   1.00
Zn1      0.28280    0.71720    0.28280   1.00
Zn1      0.28280    0.78280    0.21720   1.00
Zn1      0.21720    0.71720    0.21720   1.00
O2       0.22650    0.77350    0.33820   1.00
O2       0.22650    0.83820    0.27350   1.00
O2       0.16180    0.77350    0.27350   1.00
O2       0.27350    0.72650    0.33820   1.00
O2       0.33820    0.72650    0.27350   1.00
O2       0.27350    0.66180    0.27350   1.00
O2       0.27350    0.83820    0.22650   1.00
O2       0.33820    0.77350    0.22650   1.00
O2       0.27350    0.77350    0.16180   1.00
O2       0.16180    0.72650    0.22650   1.00
O2       0.22650    0.66180    0.22650   1.00
O2       0.22650    0.72650    0.16180   1.00
C1       0.25000    0.75000    0.35520   1.00
C1       0.25000    0.85520    0.25000   1.00
C1       0.14480    0.75000    0.25000   1.00
C1       0.35520    0.75000    0.25000   1.00
C1       0.25000    0.64480    0.25000   1.00
C1       0.25000    0.75000    0.14480   1.00
O1       0.75000    0.25000    0.25000   1.00
Zn1      0.71720    0.28280    0.28280   1.00
Zn1      0.78280    0.21720    0.28280   1.00
Zn1      0.78280    0.28280    0.21720   1.00
Zn1      0.71720    0.21720    0.21720   1.00
O2       0.72650    0.27350    0.33820   1.00
O2       0.72650    0.33820    0.27350   1.00
O2       0.66180    0.27350    0.27350   1.00
O2       0.77350    0.22650    0.33820   1.00
O2       0.83820    0.22650    0.27350   1.00
O2       0.77350    0.16180    0.27350   1.00
O2       0.77350    0.33820    0.22650   1.00
O2       0.83820    0.27350    0.22650   1.00
O2       0.77350    0.27350    0.16180   1.00
O2       0.66180    0.22650    0.22650   1.00
O2       0.72650    0.16180    0.22650   1.00
O2       0.72650    0.22650    0.16180   1.00
C1       0.75000    0.25000    0.35520   1.00
C1       0.75000    0.35520    0.25000   1.00
C1       0.64480    0.25000    0.25000   1.00
C1       0.85520    0.25000    0.25000   1.00
C1       0.75000    0.14480    0.25000   1.00
C1       0.75000    0.25000    0.14480   1.00
O1       0.25000    0.25000    0.25000   1.00
Zn1      0.28280    0.21720    0.21720   1.00
Zn1      0.21720    0.28280    0.21720   1.00
Zn1      0.21720    0.21720    0.28280   1.00
Zn1      0.28280    0.28280    0.28280   1.00
O2       0.27350    0.22650    0.16180   1.00
O2       0.27350    0.16180    0.22650   1.00
O2       0.33820    0.22650    0.22650   1.00
O2       0.22650    0.27350    0.16180   1.00
O2       0.16180    0.27350    0.22650   1.00
O2       0.22650    0.33820    0.22650   1.00
O2       0.22650    0.16180    0.27350   1.00
O2       0.16180    0.22650    0.27350   1.00
O2       0.22650    0.22650    0.33820   1.00
O2       0.33820    0.27350    0.27350   1.00
O2       0.27350    0.33820    0.27350   1.00
O2       0.27350    0.27350    0.33820   1.00
C1       0.25000    0.25000    0.14480   1.00
C1       0.25000    0.14480    0.25000   1.00
C1       0.35520    0.25000    0.25000   1.00
C1       0.14480    0.25000    0.25000   1.00
C1       0.25000    0.35520    0.25000   1.00
C1       0.25000    0.25000    0.35520   1.00
O1       0.75000    0.75000    0.25000   1.00
Zn1      0.78280    0.71720    0.21720   1.00
Zn1      0.71720    0.78280    0.21720   1.00
Zn1      0.71720    0.71720    0.28280   1.00
Zn1      0.78280    0.78280    0.28280   1.00
O2       0.77350    0.72650    0.16180   1.00
O2       0.77350    0.66180    0.22650   1.00
O2       0.83820    0.72650    0.22650   1.00
O2       0.72650    0.77350    0.16180   1.00
O2       0.66180    0.77350    0.22650   1.00
O2       0.72650    0.83820    0.22650   1.00
O2       0.72650    0.66180    0.27350   1.00
O2       0.66180    0.72650    0.27350   1.00
O2       0.72650    0.72650    0.33820   1.00
O2       0.83820    0.77350    0.27350   1.00
O2       0.77350    0.83820    0.27350   1.00
O2       0.77350    0.77350    0.33820   1.00
C1       0.75000    0.75000    0.14480   1.00
C1       0.75000    0.64480    0.25000   1.00
C1       0.85520    0.75000    0.25000   1.00
C1       0.64480    0.75000    0.25000   1.00
C1       0.75000    0.85520    0.25000   1.00
C1       0.75000    0.75000    0.35520   1.00
O1       0.75000    0.25000    0.75000   1.00
Zn1      0.78280    0.21720    0.71720   1.00
Zn1      0.71720    0.28280    0.71720   1.00
Zn1      0.71720    0.21720    0.78280   1.00
Zn1      0.78280    0.28280    0.78280   1.00
O2       0.77350    0.22650    0.66180   1.00
O2       0.77350    0.16180    0.72650   1.00
O2       0.83820    0.22650    0.72650   1.00
O2       0.72650    0.27350    0.66180   1.00
O2       0.66180    0.27350    0.72650   1.00
O2       0.72650    0.33820    0.72650   1.00
O2       0.72650    0.16180    0.77350   1.00
O2       0.66180    0.22650    0.77350   1.00
O2       0.72650    0.22650    0.83820   1.00
O2       0.83820    0.27350    0.77350   1.00
O2       0.77350    0.33820    0.77350   1.00
O2       0.77350    0.27350    0.83820   1.00
C1       0.75000    0.25000    0.64480   1.00
C1       0.75000    0.14480    0.75000   1.00
C1       0.85520    0.25000    0.75000   1.00
C1       0.64480    0.25000    0.75000   1.00
C1       0.75000    0.35520    0.75000   1.00
C1       0.75000    0.25000    0.85520   1.00
O1       0.25000    0.75000    0.75000   1.00
Zn1      0.28280    0.71720    0.71720   1.00
Zn1      0.21720    0.78280    0.71720   1.00
Zn1      0.21720    0.71720    0.78280   1.00
Zn1      0.28280    0.78280    0.78280   1.00
O2       0.27350    0.72650    0.66180   1.00
O2       0.27350    0.66180    0.72650   1.00
O2       0.33820    0.72650    0.72650   1.00
O2       0.22650    0.77350    0.66180   1.00
O2       0.16180    0.77350    0.72650   1.00
O2       0.22650    0.83820    0.72650   1.00
O2       0.22650    0.66180    0.77350   1.00
O2       0.16180    0.72650    0.77350   1.00
O2       0.22650    0.72650    0.83820   1.00
O2       0.33820    0.77350    0.77350   1.00
O2       0.27350    0.83820    0.77350   1.00
O2       0.27350    0.77350    0.83820   1.00
C1       0.25000    0.75000    0.64480   1.00
C1       0.25000    0.64480    0.75000   1.00
C1       0.35520    0.75000    0.75000   1.00
C1       0.14480    0.75000    0.75000   1.00
C1       0.25000    0.85520    0.75000   1.00
C1       0.25000    0.75000    0.85520   1.00
O1       1.00000    1.00000    1.00000   1.00
Zn1      0.96720    1.03280    1.03280   1.00
Zn1      1.03280    0.96720    1.03280   1.00
Zn1      1.03280    1.03280    0.96720   1.00
Zn1      0.96720    0.96720    0.96720   1.00
O2       0.97650    1.02350    1.08820   1.00
O2       0.97650    1.08820    1.02350   1.00
O2       0.91180    1.02350    1.02350   1.00
O2       1.02350    0.97650    1.08820   1.00
O2       1.08820    0.97650    1.02350   1.00
O2       1.02350    0.91180    1.02350   1.00
O2       1.02350    1.08820    0.97650   1.00
O2       1.08820    1.02350    0.97650   1.00
O2       1.02350    1.02350    0.91180   1.00
O2       0.91180    0.97650    0.97650   1.00
O2       0.97650    0.91180    0.97650   1.00
O2       0.97650    0.97650    0.91180   1.00
C1       1.00000    1.00000    1.10520   1.00
C1       1.00000    1.10520    1.00000   1.00
C1       0.89480    1.00000    1.00000   1.00
C1       1.10520    1.00000    1.00000   1.00
C1       1.00000    0.89480    1.00000   1.00
C1       1.00000    1.00000    0.89480   1.00
O1       0.50000    0.50000    1.00000   1.00
Zn1      0.46720    0.53280    1.03280   1.00
Zn1      0.53280    0.46720    1.03280   1.00
Zn1      0.53280    0.53280    0.96720   1.00
Zn1      0.46720    0.46720    0.96720   1.00
O2       0.47650    0.52350    1.08820   1.00
O2       0.47650    0.58820    1.02350   1.00
O2       0.41180    0.52350    1.02350   1.00
O2       0.52350    0.47650    1.08820   1.00
O2       0.58820    0.47650    1.02350   1.00
O2       0.52350    0.41180    1.02350   1.00
O2       0.52350    0.58820    0.97650   1.00
O2       0.58820    0.52350    0.97650   1.00
O2       0.52350    0.52350    0.91180   1.00
O2       0.41180    0.47650    0.97650   1.00
O2       0.47650    0.41180    0.97650   1.00
O2       0.47650    0.47650    0.91180   1.00
C1       0.50000    0.50000    1.10520   1.00
C1       0.50000    0.60520    1.00000   1.00
C1       0.39480    0.50000    1.00000   1.00
C1       0.60520    0.50000    1.00000   1.00
C1       0.50000    0.39480    1.00000   1.00
C1       0.50000    0.50000    0.89480   1.00
O1       0.50000    1.00000    0.50000   1.00
Zn1      0.46720    1.03280    0.53280   1.00
Zn1      0.53280    0.96720    0.53280   1.00
Zn1      0.53280    1.03280    0.46720   1.00
Zn1      0.46720    0.96720    0.46720   1.00
O2       0.47650    1.02350    0.58820   1.00
O2       0.47650    1.08820    0.52350   1.00
O2       0.41180    1.02350    0.52350   1.00
O2       0.52350    0.97650    0.58820   1.00
O2       0.58820    0.97650    0.52350   1.00
O2       0.52350    0.91180    0.52350   1.00
O2       0.52350    1.08820    0.47650   1.00
O2       0.58820    1.02350    0.47650   1.00
O2       0.52350    1.02350    0.41180   1.00
O2       0.41180    0.97650    0.47650   1.00
O2       0.47650    0.91180    0.47650   1.00
O2       0.47650    0.97650    0.41180   1.00
C1       0.50000    1.00000    0.60520   1.00
C1       0.50000    1.10520    0.50000   1.00
C1       0.39480    1.00000    0.50000   1.00
C1       0.60520    1.00000    0.50000   1.00
C1       0.50000    0.89480    0.50000   1.00
C1       0.50000    1.00000    0.39480   1.00
O1       1.00000    0.50000    0.50000   1.00
Zn1      0.96720    0.53280    0.53280   1.00
Zn1      1.03280    0.46720    0.53280   1.00
Zn1      1.03280    0.53280    0.46720   1.00
Zn1      0.96720    0.46720    0.46720   1.00
O2       0.97650    0.52350    0.58820   1.00
O2       0.97650    0.58820    0.52350   1.00
O2       0.91180    0.52350    0.52350   1.00
O2       1.02350    0.47650    0.58820   1.00
O2       1.08820    0.47650    0.52350   1.00
O2       1.02350    0.41180    0.52350   1.00
O2       1.02350    0.58820    0.47650   1.00
O2       1.08820    0.52350    0.47650   1.00
O2       1.02350    0.52350    0.41180   1.00
O2       0.91180    0.47650    0.47650   1.00
O2       0.97650    0.41180    0.47650   1.00
O2       0.97650    0.47650    0.41180   1.00
C1       1.00000    0.50000    0.60520   1.00
C1       1.00000    0.60520    0.50000   1.00
C1       0.89480    0.50000    0.50000   1.00
C1       1.10520    0.50000    0.50000   1.00
C1       1.00000    0.39480    0.50000   1.00
C1       1.00000    0.50000    0.39480   1.00
O1       0.50000    0.50000    0.50000   1.00
Zn1      0.53280    0.46720    0.46720   1.00
Zn1      0.46720    0.53280    0.46720   1.00
Zn1      0.46720    0.46720    0.53280   1.00
Zn1      0.53280    0.53280    0.53280   1.00
O2       0.52350    0.47650    0.41180   1.00
O2       0.52350    0.41180    0.47650   1.00
O2       0.58820    0.47650    0.47650   1.00
O2       0.47650    0.52350    0.41180   1.00
O2       0.41180    0.52350    0.47650   1.00
O2       0.47650    0.58820    0.47650   1.00
O2       0.47650    0.41180    0.52350   1.00
O2       0.41180    0.47650    0.52350   1.00
O2       0.47650    0.47650    0.58820   1.00
O2       0.58820    0.52350    0.52350   1.00
O2       0.52350    0.58820    0.52350   1.00
O2       0.52350    0.52350    0.58820   1.00
C1       0.50000    0.50000    0.39480   1.00
C1       0.50000    0.39480    0.50000   1.00
C1       0.60520    0.50000    0.50000   1.00
C1       0.39480    0.50000    0.50000   1.00
C1       0.50000    0.60520    0.50000   1.00
C1       0.50000    0.50000    0.60520   1.00
O1       1.00000    1.00000    0.50000   1.00
Zn1      1.03280    0.96720    0.46720   1.00
Zn1      0.96720    1.03280    0.46720   1.00
Zn1      0.96720    0.96720    0.53280   1.00
Zn1      1.03280    1.03280    0.53280   1.00
O2       1.02350    0.97650    0.41180   1.00
O2       1.02350    0.91180    0.47650   1.00
O2       1.08820    0.97650    0.47650   1.00
O2       0.97650    1.02350    0.41180   1.00
O2       0.91180    1.02350    0.47650   1.00
O2       0.97650    1.08820    0.47650   1.00
O2       0.97650    0.91180    0.52350   1.00
O2       0.91180    0.97650    0.52350   1.00
O2       0.97650    0.97650    0.58820   1.00
O2       1.08820    1.02350    0.52350   1.00
O2       1.02350    1.08820    0.52350   1.00
O2       1.02350    1.02350    0.58820   1.00
C1       1.00000    1.00000    0.39480   1.00
C1       1.00000    0.89480    0.50000   1.00
C1       1.10520    1.00000    0.50000   1.00
C1       0.89480    1.00000    0.50000   1.00
C1       1.00000    1.10520    0.50000   1.00
C1       1.00000    1.00000    0.60520   1.00
O1       1.00000    0.50000    1.00000   1.00
Zn1      1.03280    0.46720    0.96720   1.00
Zn1      0.96720    0.53280    0.96720   1.00
Zn1      0.96720    0.46720    1.03280   1.00
Zn1      1.03280    0.53280    1.03280   1.00
O2       1.02350    0.47650    0.91180   1.00
O2       1.02350    0.41180    0.97650   1.00
O2       1.08820    0.47650    0.97650   1.00
O2       0.97650    0.52350    0.91180   1.00
O2       0.91180    0.52350    0.97650   1.00
O2       0.97650    0.58820    0.97650   1.00
O2       0.97650    0.41180    1.02350   1.00
O2       0.91180    0.47650    1.02350   1.00
O2       0.97650    0.47650    1.08820   1.00
O2       1.08820    0.52350    1.02350   1.00
O2       1.02350    0.58820    1.02350   1.00
O2       1.02350    0.52350    1.08820   1.00
C1       1.00000    0.50000    0.89480   1.00
C1       1.00000    0.39480    1.00000   1.00
C1       1.10520    0.50000    1.00000   1.00
C1       0.89480    0.50000    1.00000   1.00
C1       1.00000    0.60520    1.00000   1.00
C1       1.00000    0.50000    1.10520   1.00
O1       0.50000    1.00000    1.00000   1.00
Zn1      0.53280    0.96720    0.96720   1.00
Zn1      0.46720    1.03280    0.96720   1.00
Zn1      0.46720    0.96720    1.03280   1.00
Zn1      0.53280    1.03280    1.03280   1.00
O2       0.52350    0.97650    0.91180   1.00
O2       0.52350    0.91180    0.97650   1.00
O2       0.58820    0.97650    0.97650   1.00
O2       0.47650    1.02350    0.91180   1.00
O2       0.41180    1.02350    0.97650   1.00
O2       0.47650    1.08820    0.97650   1.00
O2       0.47650    0.91180    1.02350   1.00
O2       0.41180    0.97650    1.02350   1.00
O2       0.47650    0.97650    1.08820   1.00
O2       0.58820    1.02350    1.02350   1.00
O2       0.52350    1.08820    1.02350   1.00
O2       0.52350    1.02350    1.08820   1.00
C1       0.50000    1.00000    0.89480   1.00
C1       0.50000    0.89480    1.00000   1.00
C1       0.60520    1.00000    1.00000   1.00
C1       0.39480    1.00000    1.00000   1.00
C1       0.50000    1.10520    1.00000   1.00
C1       0.50000    1.00000    1.10520   1.00
C4       0.74970    0.75024    0.97915   1.00
C4       0.75030    0.74976    1.02085   1.00
C3       0.76058    0.78371    0.95751   1.00
C3       0.78034    0.76797    1.04252   1.00
C3       0.73896    0.71682    0.95738   1.00
C3       0.72020    0.73167    1.04259   1.00
C2       0.75010    0.75012    0.89482   1.00
C2       0.75010    0.75012    1.10518   1.00
C3a      0.76082    0.78380    0.91599   1.00
C3       0.78018    0.76809    1.08382   1.00
C3       0.73918    0.71683    0.91611   1.00
C3a      0.71993    0.73173    1.08403   1.00
H1       0.76866    0.81005    0.97294   1.00
H1       0.80437    0.78194    1.02750   1.00
C5       0.77240    0.82005    0.89410   1.00
H1       0.80375    0.78232    1.09933   1.00
H1       0.73106    0.69056    0.90056   1.00
C5       0.68704    0.71190    1.10535   1.00
H1       0.69592    0.71828    1.02747   1.00
H1       0.73106    0.69013    0.97230   1.00
H2       0.68779    0.68024    1.09837   1.00
H2       0.69059    0.71470    1.13747   1.00
N1       0.64950    0.72872    1.09395   1.00
C6       0.63347    0.72771    1.05810   1.00
C6       0.62449    0.74772    1.11757   1.00
C6       0.59785    0.74644    1.05873   1.00
C6       0.59215    0.75917    1.09656   1.00
H3       0.64673    0.71417    1.03281   1.00
H3       0.62945    0.75310    1.14831   1.00
H3       0.57820    0.75034    1.03436   1.00
H3       0.56720    0.77500    1.10758   1.00
H2       0.77123    0.81392    0.86228   1.00
H2       0.75181    0.84438    0.90001   1.00
N1       0.81169    0.83214    0.90523   1.00
C6       0.84497    0.83517    0.88078   1.00
C6       0.82469    0.84363    0.94285   1.00
C6       0.87629    0.84777    0.90277   1.00
C6       0.86383    0.85296    0.94091   1.00
H3       0.84547    0.82849    0.84992   1.00
H3       0.80663    0.84445    0.96876   1.00
H3       0.90555    0.85267    0.89205   1.00
H3       0.88172    0.86255    0.96505   1.00
C4       0.75024    0.97915    0.74970   1.00
C4       0.74976    1.02085    0.75030   1.00
C3       0.78371    0.95751    0.76058   1.00
C3       0.76797    1.04252    0.78034   1.00
C3       0.71682    0.95738    0.73896   1.00
C3       0.73167    1.04259    0.72020   1.00
C2       0.75012    0.89482    0.75010   1.00
C2       0.75012    1.10518    0.75010   1.00
C3a      0.78380    0.91599    0.76082   1.00
C3       0.76809    1.08382    0.78018   1.00
C3       0.71683    0.91611    0.73918   1.00
C3a      0.73173    1.08403    0.71993   1.00
H1       0.81005    0.97294    0.76866   1.00
H1       0.78194    1.02750    0.80437   1.00
C5       0.82005    0.89410    0.77240   1.00
H1       0.78232    1.09933    0.80375   1.00
H1       0.69056    0.90056    0.73106   1.00
C5       0.71190    1.10535    0.68704   1.00
H1       0.71828    1.02747    0.69592   1.00
H1       0.69013    0.97230    0.73106   1.00
H2       0.68024    1.09837    0.68779   1.00
H2       0.71470    1.13747    0.69059   1.00
N1       0.72872    1.09395    0.64950   1.00
C6       0.72771    1.05810    0.63347   1.00
C6       0.74772    1.11757    0.62449   1.00
C6       0.74644    1.05873    0.59785   1.00
C6       0.75917    1.09656    0.59215   1.00
H3       0.71417    1.03281    0.64673   1.00
H3       0.75310    1.14831    0.62945   1.00
H3       0.75034    1.03436    0.57820   1.00
H3       0.77500    1.10758    0.56720   1.00
H2       0.81392    0.86228    0.77123   1.00
H2       0.84438    0.90001    0.75181   1.00
N1       0.83214    0.90523    0.81169   1.00
C6       0.83517    0.88078    0.84497   1.00
C6       0.84363    0.94285    0.82469   1.00
C6       0.84777    0.90277    0.87629   1.00
C6       0.85296    0.94091    0.86383   1.00
H3       0.82849    0.84992    0.84547   1.00
H3       0.84445    0.96876    0.80663   1.00
H3       0.85267    0.89205    0.90555   1.00
H3       0.86255    0.96505    0.88172   1.00
C4       0.52085    0.74970    0.74976   1.00
C4       0.47915    0.75030    0.75024   1.00
C3       0.54249    0.76058    0.71629   1.00
C3       0.45748    0.78034    0.73203   1.00
C3       0.54262    0.73896    0.78318   1.00
C3       0.45741    0.72020    0.76833   1.00
C2       0.60518    0.75010    0.74988   1.00
C2       0.39482    0.75010    0.74988   1.00
C3a      0.58401    0.76082    0.71620   1.00
C3       0.41618    0.78018    0.73191   1.00
C3       0.58389    0.73918    0.78317   1.00
C3a      0.41597    0.71993    0.76827   1.00
H1       0.52706    0.76866    0.68995   1.00
H1       0.47250    0.80437    0.71806   1.00
C5       0.60590    0.77240    0.67995   1.00
H1       0.40067    0.80375    0.71768   1.00
H1       0.59944    0.73106    0.80944   1.00
C5       0.39465    0.68704    0.78810   1.00
H1       0.47253    0.69592    0.78172   1.00
H1       0.52770    0.73106    0.80987   1.00
H2       0.40163    0.68779    0.81976   1.00
H2       0.36253    0.69059    0.78530   1.00
N1       0.40605    0.64950    0.77128   1.00
C6       0.44190    0.63347    0.77229   1.00
C6       0.38243    0.62449    0.75228   1.00
C6       0.44127    0.59785    0.75356   1.00
C6       0.40344    0.59215    0.74083   1.00
H3       0.46719    0.64673    0.78583   1.00
H3       0.35169    0.62945    0.74690   1.00
H3       0.46564    0.57820    0.74966   1.00
H3       0.39242    0.56720    0.72500   1.00
H2       0.63772    0.77123    0.68608   1.00
H2       0.59999    0.75181    0.65562   1.00
N1       0.59477    0.81169    0.66786   1.00
C6       0.61922    0.84497    0.66483   1.00
C6       0.55715    0.82469    0.65637   1.00
C6       0.59723    0.87629    0.65223   1.00
C6       0.55909    0.86383    0.64704   1.00
H3       0.65008    0.84547    0.67151   1.00
H3       0.53124    0.80663    0.65555   1.00
H3       0.60795    0.90555    0.64733   1.00
H3       0.53495    0.88172    0.63745   1.00
C4       0.97915    0.74970    0.75024   1.00
C4       1.02085    0.75030    0.74976   1.00
C3       0.95751    0.76058    0.78371   1.00
C3       1.04252    0.78034    0.76797   1.00
C3       0.95738    0.73896    0.71682   1.00
C3       1.04259    0.72020    0.73167   1.00
C2       0.89482    0.75010    0.75012   1.00
C2       1.10518    0.75010    0.75012   1.00
C3a      0.91599    0.76082    0.78380   1.00
C3       1.08382    0.78018    0.76809   1.00
C3       0.91611    0.73918    0.71683   1.00
C3a      1.08403    0.71993    0.73173   1.00
H1       0.97294    0.76866    0.81005   1.00
H1       1.02750    0.80437    0.78194   1.00
C5       0.89410    0.77240    0.82005   1.00
H1       1.09933    0.80375    0.78232   1.00
H1       0.90056    0.73106    0.69056   1.00
C5       1.10535    0.68704    0.71190   1.00
H1       1.02747    0.69592    0.71828   1.00
H1       0.97230    0.73106    0.69013   1.00
H2       1.09837    0.68779    0.68024   1.00
H2       1.13747    0.69059    0.71470   1.00
N1       1.09395    0.64950    0.72872   1.00
C6       1.05810    0.63347    0.72771   1.00
C6       1.11757    0.62449    0.74772   1.00
C6       1.05873    0.59785    0.74644   1.00
C6       1.09656    0.59215    0.75917   1.00
H3       1.03281    0.64673    0.71417   1.00
H3       1.14831    0.62945    0.75310   1.00
H3       1.03436    0.57820    0.75034   1.00
H3       1.10758    0.56720    0.77500   1.00
H2       0.86228    0.77123    0.81392   1.00
H2       0.90001    0.75181    0.84438   1.00
N1       0.90523    0.81169    0.83214   1.00
C6       0.88078    0.84497    0.83517   1.00
C6       0.94285    0.82469    0.84363   1.00
C6       0.90277    0.87629    0.84777   1.00
C6       0.94091    0.86383    0.85296   1.00
H3       0.84992    0.84547    0.82849   1.00
H3       0.96876    0.80663    0.84445   1.00
H3       0.89205    0.90555    0.85267   1.00
H3       0.96505    0.88172    0.86255   1.00
C4       0.74976    0.52085    0.74970   1.00
C4       0.75024    0.47915    0.75030   1.00
C3       0.71629    0.54249    0.76058   1.00
C3       0.73203    0.45748    0.78034   1.00
C3       0.78318    0.54262    0.73896   1.00
C3       0.76833    0.45741    0.72020   1.00
C2       0.74988    0.60518    0.75010   1.00
C2       0.74988    0.39482    0.75010   1.00
C3a      0.71620    0.58401    0.76082   1.00
C3       0.73191    0.41618    0.78018   1.00
C3       0.78317    0.58389    0.73918   1.00
C3a      0.76827    0.41597    0.71993   1.00
H1       0.68995    0.52706    0.76866   1.00
H1       0.71806    0.47250    0.80437   1.00
C5       0.67995    0.60590    0.77240   1.00
H1       0.71768    0.40067    0.80375   1.00
H1       0.80944    0.59944    0.73106   1.00
C5       0.78810    0.39465    0.68704   1.00
H1       0.78172    0.47253    0.69592   1.00
H1       0.80987    0.52770    0.73106   1.00
H2       0.81976    0.40163    0.68779   1.00
H2       0.78530    0.36253    0.69059   1.00
N1       0.77128    0.40605    0.64950   1.00
C6       0.77229    0.44190    0.63347   1.00
C6       0.75228    0.38243    0.62449   1.00
C6       0.75356    0.44127    0.59785   1.00
C6       0.74083    0.40344    0.59215   1.00
H3       0.78583    0.46719    0.64673   1.00
H3       0.74690    0.35169    0.62945   1.00
H3       0.74966    0.46564    0.57820   1.00
H3       0.72500    0.39242    0.56720   1.00
H2       0.68608    0.63772    0.77123   1.00
H2       0.65562    0.59999    0.75181   1.00
N1       0.66786    0.59477    0.81169   1.00
C6       0.66483    0.61922    0.84497   1.00
C6       0.65637    0.55715    0.82469   1.00
C6       0.65223    0.59723    0.87629   1.00
C6       0.64704    0.55909    0.86383   1.00
H3       0.67151    0.65008    0.84547   1.00
H3       0.65555    0.53124    0.80663   1.00
H3       0.64733    0.60795    0.90555   1.00
H3       0.63745    0.53495    0.88172   1.00
C4       0.74970    0.74976    0.52085   1.00
C4       0.75030    0.75024    0.47915   1.00
C3       0.76058    0.71629    0.54249   1.00
C3       0.78034    0.73203    0.45748   1.00
C3       0.73896    0.78318    0.54262   1.00
C3       0.72020    0.76833    0.45741   1.00
C2       0.75010    0.74988    0.60518   1.00
C2       0.75010    0.74988    0.39482   1.00
C3a      0.76082    0.71620    0.58401   1.00
C3       0.78018    0.73191    0.41618   1.00
C3       0.73918    0.78317    0.58389   1.00
C3a      0.71993    0.76827    0.41597   1.00
H1       0.76866    0.68995    0.52706   1.00
H1       0.80437    0.71806    0.47250   1.00
C5       0.77240    0.67995    0.60590   1.00
H1       0.80375    0.71768    0.40067   1.00
H1       0.73106    0.80944    0.59944   1.00
C5       0.68704    0.78810    0.39465   1.00
H1       0.69592    0.78172    0.47253   1.00
H1       0.73106    0.80987    0.52770   1.00
H2       0.68779    0.81976    0.40163   1.00
H2       0.69059    0.78530    0.36253   1.00
N1       0.64950    0.77128    0.40605   1.00
C6       0.63347    0.77229    0.44190   1.00
C6       0.62449    0.75228    0.38243   1.00
C6       0.59785    0.75356    0.44127   1.00
C6       0.59215    0.74083    0.40344   1.00
H3       0.64673    0.78583    0.46719   1.00
H3       0.62945    0.74690    0.35169   1.00
H3       0.57820    0.74966    0.46564   1.00
H3       0.56720    0.72500    0.39242   1.00
H2       0.77123    0.68608    0.63772   1.00
H2       0.75181    0.65562    0.59999   1.00
N1       0.81169    0.66786    0.59477   1.00
C6       0.84497    0.66483    0.61922   1.00
C6       0.82469    0.65637    0.55715   1.00
C6       0.87629    0.65223    0.59723   1.00
C6       0.86383    0.64704    0.55909   1.00
H3       0.84547    0.67151    0.65008   1.00
H3       0.80663    0.65555    0.53124   1.00
H3       0.90555    0.64733    0.60795   1.00
H3       0.88172    0.63745    0.53495   1.00
C4       0.24970    0.25024    0.97915   1.00
C4       0.25030    0.24976    1.02085   1.00
C3       0.26058    0.28371    0.95751   1.00
C3       0.28034    0.26797    1.04252   1.00
C3       0.23896    0.21682    0.95738   1.00
C3       0.22020    0.23167    1.04259   1.00
C2       0.25010    0.25012    0.89482   1.00
C2       0.25010    0.25012    1.10518   1.00
C3a      0.26082    0.28380    0.91599   1.00
C3       0.28018    0.26809    1.08382   1.00
C3       0.23918    0.21683    0.91611   1.00
C3a      0.21993    0.23173    1.08403   1.00
H1       0.26866    0.31005    0.97294   1.00
H1       0.30437    0.28194    1.02750   1.00
C5       0.27240    0.32005    0.89410   1.00
H1       0.30375    0.28232    1.09933   1.00
H1       0.23106    0.19056    0.90056   1.00
C5       0.18704    0.21190    1.10535   1.00
H1       0.19592    0.21828    1.02747   1.00
H1       0.23106    0.19013    0.97230   1.00
H2       0.18779    0.18024    1.09837   1.00
H2       0.19059    0.21470    1.13747   1.00
N1       0.14950    0.22872    1.09395   1.00
C6       0.13347    0.22771    1.05810   1.00
C6       0.12449    0.24772    1.11757   1.00
C6       0.09785    0.24644    1.05873   1.00
C6       0.09215    0.25917    1.09656   1.00
H3       0.14673    0.21417    1.03281   1.00
H3       0.12945    0.25310    1.14831   1.00
H3       0.07820    0.25034    1.03436   1.00
H3       0.06720    0.27500    1.10758   1.00
H2       0.27123    0.31392    0.86228   1.00
H2       0.25181    0.34438    0.90001   1.00
N1       0.31169    0.33214    0.90523   1.00
C6       0.34497    0.33517    0.88078   1.00
C6       0.32469    0.34363    0.94285   1.00
C6       0.37629    0.34777    0.90277   1.00
C6       0.36383    0.35296    0.94091   1.00
H3       0.34547    0.32849    0.84992   1.00
H3       0.30663    0.34445    0.96876   1.00
H3       0.40555    0.35267    0.89205   1.00
H3       0.38172    0.36255    0.96505   1.00
C4       0.25024    0.47915    0.74970   1.00
C4       0.24976    0.52085    0.75030   1.00
C3       0.28371    0.45751    0.76058   1.00
C3       0.26797    0.54252    0.78034   1.00
C3       0.21682    0.45738    0.73896   1.00
C3       0.23167    0.54259    0.72020   1.00
C2       0.25012    0.39482    0.75010   1.00
C2       0.25012    0.60518    0.75010   1.00
C3a      0.28380    0.41599    0.76082   1.00
C3       0.26809    0.58382    0.78018   1.00
C3       0.21683    0.41611    0.73918   1.00
C3a      0.23173    0.58403    0.71993   1.00
H1       0.31005    0.47294    0.76866   1.00
H1       0.28194    0.52750    0.80437   1.00
C5       0.32005    0.39410    0.77240   1.00
H1       0.28232    0.59933    0.80375   1.00
H1       0.19056    0.40056    0.73106   1.00
C5       0.21190    0.60535    0.68704   1.00
H1       0.21828    0.52747    0.69592   1.00
H1       0.19013    0.47230    0.73106   1.00
H2       0.18024    0.59837    0.68779   1.00
H2       0.21470    0.63747    0.69059   1.00
N1       0.22872    0.59395    0.64950   1.00
C6       0.22771    0.55810    0.63347   1.00
C6       0.24772    0.61757    0.62449   1.00
C6       0.24644    0.55873    0.59785   1.00
C6       0.25917    0.59656    0.59215   1.00
H3       0.21417    0.53281    0.64673   1.00
H3       0.25310    0.64831    0.62945   1.00
H3       0.25034    0.53436    0.57820   1.00
H3       0.27500    0.60758    0.56720   1.00
H2       0.31392    0.36228    0.77123   1.00
H2       0.34438    0.40001    0.75181   1.00
N1       0.33214    0.40523    0.81169   1.00
C6       0.33517    0.38078    0.84497   1.00
C6       0.34363    0.44285    0.82469   1.00
C6       0.34777    0.40277    0.87629   1.00
C6       0.35296    0.44091    0.86383   1.00
H3       0.32849    0.34992    0.84547   1.00
H3       0.34445    0.46876    0.80663   1.00
H3       0.35267    0.39205    0.90555   1.00
H3       0.36255    0.46505    0.88172   1.00
C4       0.02085    0.24970    0.74976   1.00
C4       -0.02085   0.25030    0.75024   1.00
C3       0.04249    0.26058    0.71629   1.00
C3       -0.04252   0.28034    0.73203   1.00
C3       0.04262    0.23896    0.78318   1.00
C3       -0.04259   0.22020    0.76833   1.00
C2       0.10518    0.25010    0.74988   1.00
C2       -0.10518   0.25010    0.74988   1.00
C3a      0.08401    0.26082    0.71620   1.00
C3       -0.08382   0.28018    0.73191   1.00
C3       0.08389    0.23918    0.78317   1.00
C3a      -0.08403   0.21993    0.76827   1.00
H1       0.02706    0.26866    0.68995   1.00
H1       -0.02750   0.30437    0.71806   1.00
C5       0.10590    0.27240    0.67995   1.00
H1       -0.09933   0.30375    0.71768   1.00
H1       0.09944    0.23106    0.80944   1.00
C5       -0.10535   0.18704    0.78810   1.00
H1       -0.02747   0.19592    0.78172   1.00
H1       0.02770    0.23106    0.80987   1.00
H2       -0.09837   0.18779    0.81976   1.00
H2       -0.13747   0.19059    0.78530   1.00
N1       -0.09395   0.14950    0.77128   1.00
C6       -0.05810   0.13347    0.77229   1.00
C6       -0.11757   0.12449    0.75228   1.00
C6       -0.05873   0.09785    0.75356   1.00
C6       -0.09656   0.09215    0.74083   1.00
H3       -0.03281   0.14673    0.78583   1.00
H3       -0.14831   0.12945    0.74690   1.00
H3       -0.03436   0.07820    0.74966   1.00
H3       -0.10758   0.06720    0.72500   1.00
H2       0.13772    0.27123    0.68608   1.00
H2       0.09999    0.25181    0.65562   1.00
N1       0.09477    0.31169    0.66786   1.00
C6       0.11922    0.34497    0.66483   1.00
C6       0.05715    0.32469    0.65637   1.00
C6       0.09723    0.37629    0.65223   1.00
C6       0.05909    0.36383    0.64704   1.00
H3       0.15008    0.34547    0.67151   1.00
H3       0.03124    0.30663    0.65555   1.00
H3       0.10795    0.40555    0.64733   1.00
H3       0.03495    0.38172    0.63745   1.00
C4       0.47915    0.24970    0.75024   1.00
C4       0.52085    0.25030    0.74976   1.00
C3       0.45751    0.26058    0.78371   1.00
C3       0.54252    0.28034    0.76797   1.00
C3       0.45738    0.23896    0.71682   1.00
C3       0.54259    0.22020    0.73167   1.00
C2       0.39482    0.25010    0.75012   1.00
C2       0.60518    0.25010    0.75012   1.00
C3a      0.41599    0.26082    0.78380   1.00
C3       0.58382    0.28018    0.76809   1.00
C3       0.41611    0.23918    0.71683   1.00
C3a      0.58403    0.21993    0.73173   1.00
H1       0.47294    0.26866    0.81005   1.00
H1       0.52750    0.30437    0.78194   1.00
C5       0.39410    0.27240    0.82005   1.00
H1       0.59933    0.30375    0.78232   1.00
H1       0.40056    0.23106    0.69056   1.00
C5       0.60535    0.18704    0.71190   1.00
H1       0.52747    0.19592    0.71828   1.00
H1       0.47230    0.23106    0.69013   1.00
H2       0.59837    0.18779    0.68024   1.00
H2       0.63747    0.19059    0.71470   1.00
N1       0.59395    0.14950    0.72872   1.00
C6       0.55810    0.13347    0.72771   1.00
C6       0.61757    0.12449    0.74772   1.00
C6       0.55873    0.09785    0.74644   1.00
C6       0.59656    0.09215    0.75917   1.00
H3       0.53281    0.14673    0.71417   1.00
H3       0.64831    0.12945    0.75310   1.00
H3       0.53436    0.07820    0.75034   1.00
H3       0.60758    0.06720    0.77500   1.00
H2       0.36228    0.27123    0.81392   1.00
H2       0.40001    0.25181    0.84438   1.00
N1       0.40523    0.31169    0.83214   1.00
C6       0.38078    0.34497    0.83517   1.00
C6       0.44285    0.32469    0.84363   1.00
C6       0.40277    0.37629    0.84777   1.00
C6       0.44091    0.36383    0.85296   1.00
H3       0.34992    0.34547    0.82849   1.00
H3       0.46876    0.30663    0.84445   1.00
H3       0.39205    0.40555    0.85267   1.00
H3       0.46505    0.38172    0.86255   1.00
C4       0.24976    0.02085    0.74970   1.00
C4       0.25024    -0.02085   0.75030   1.00
C3       0.21629    0.04249    0.76058   1.00
C3       0.23203    -0.04252   0.78034   1.00
C3       0.28318    0.04262    0.73896   1.00
C3       0.26833    -0.04259   0.72020   1.00
C2       0.24988    0.10518    0.75010   1.00
C2       0.24988    -0.10518   0.75010   1.00
C3a      0.21620    0.08401    0.76082   1.00
C3       0.23191    -0.08382   0.78018   1.00
C3       0.28317    0.08389    0.73918   1.00
C3a      0.26827    -0.08403   0.71993   1.00
H1       0.18995    0.02706    0.76866   1.00
H1       0.21806    -0.02750   0.80437   1.00
C5       0.17995    0.10590    0.77240   1.00
H1       0.21768    -0.09933   0.80375   1.00
H1       0.30944    0.09944    0.73106   1.00
C5       0.28810    -0.10535   0.68704   1.00
H1       0.28172    -0.02747   0.69592   1.00
H1       0.30987    0.02770    0.73106   1.00
H2       0.31976    -0.09837   0.68779   1.00
H2       0.28530    -0.13747   0.69059   1.00
N1       0.27128    -0.09395   0.64950   1.00
C6       0.27229    -0.05810   0.63347   1.00
C6       0.25228    -0.11757   0.62449   1.00
C6       0.25356    -0.05873   0.59785   1.00
C6       0.24083    -0.09656   0.59215   1.00
H3       0.28583    -0.03281   0.64673   1.00
H3       0.24690    -0.14831   0.62945   1.00
H3       0.24966    -0.03436   0.57820   1.00
H3       0.22500    -0.10758   0.56720   1.00
H2       0.18608    0.13772    0.77123   1.00
H2       0.15562    0.09999    0.75181   1.00
N1       0.16786    0.09477    0.81169   1.00
C6       0.16483    0.11922    0.84497   1.00
C6       0.15637    0.05715    0.82469   1.00
C6       0.15223    0.09723    0.87629   1.00
C6       0.14704    0.05909    0.86383   1.00
H3       0.17151    0.15008    0.84547   1.00
H3       0.15555    0.03124    0.80663   1.00
H3       0.14733    0.10795    0.90555   1.00
H3       0.13745    0.03495    0.88172   1.00
C4       0.24970    0.24976    0.52085   1.00
C4       0.25030    0.25024    0.47915   1.00
C3       0.26058    0.21629    0.54249   1.00
C3       0.28034    0.23203    0.45748   1.00
C3       0.23896    0.28318    0.54262   1.00
C3       0.22020    0.26833    0.45741   1.00
C2       0.25010    0.24988    0.60518   1.00
C2       0.25010    0.24988    0.39482   1.00
C3a      0.26082    0.21620    0.58401   1.00
C3       0.28018    0.23191    0.41618   1.00
C3       0.23918    0.28317    0.58389   1.00
C3a      0.21993    0.26827    0.41597   1.00
H1       0.26866    0.18995    0.52706   1.00
H1       0.30437    0.21806    0.47250   1.00
C5       0.27240    0.17995    0.60590   1.00
H1       0.30375    0.21768    0.40067   1.00
H1       0.23106    0.30944    0.59944   1.00
C5       0.18704    0.28810    0.39465   1.00
H1       0.19592    0.28172    0.47253   1.00
H1       0.23106    0.30987    0.52770   1.00
H2       0.18779    0.31976    0.40163   1.00
H2       0.19059    0.28530    0.36253   1.00
N1       0.14950    0.27128    0.40605   1.00
C6       0.13347    0.27229    0.44190   1.00
C6       0.12449    0.25228    0.38243   1.00
C6       0.09785    0.25356    0.44127   1.00
C6       0.09215    0.24083    0.40344   1.00
H3       0.14673    0.28583    0.46719   1.00
H3       0.12945    0.24690    0.35169   1.00
H3       0.07820    0.24966    0.46564   1.00
H3       0.06720    0.22500    0.39242   1.00
H2       0.27123    0.18608    0.63772   1.00
H2       0.25181    0.15562    0.59999   1.00
N1       0.31169    0.16786    0.59477   1.00
C6       0.34497    0.16483    0.61922   1.00
C6       0.32469    0.15637    0.55715   1.00
C6       0.37629    0.15223    0.59723   1.00
C6       0.36383    0.14704    0.55909   1.00
H3       0.34547    0.17151    0.65008   1.00
H3       0.30663    0.15555    0.53124   1.00
H3       0.40555    0.14733    0.60795   1.00
H3       0.38172    0.13745    0.53495   1.00
C4       0.24970    0.75024    0.47915   1.00
C4       0.25030    0.74976    0.52085   1.00
C3       0.26058    0.78371    0.45751   1.00
C3       0.28034    0.76797    0.54252   1.00
C3       0.23896    0.71682    0.45738   1.00
C3       0.22020    0.73167    0.54259   1.00
C2       0.25010    0.75012    0.39482   1.00
C2       0.25010    0.75012    0.60518   1.00
C3a      0.26082    0.78380    0.41599   1.00
C3       0.28018    0.76809    0.58382   1.00
C3       0.23918    0.71683    0.41611   1.00
C3a      0.21993    0.73173    0.58403   1.00
H1       0.26866    0.81005    0.47294   1.00
H1       0.30437    0.78194    0.52750   1.00
C5       0.27240    0.82005    0.39410   1.00
H1       0.30375    0.78232    0.59933   1.00
H1       0.23106    0.69056    0.40056   1.00
C5       0.18704    0.71190    0.60535   1.00
H1       0.19592    0.71828    0.52747   1.00
H1       0.23106    0.69013    0.47230   1.00
H2       0.18779    0.68024    0.59837   1.00
H2       0.19059    0.71470    0.63747   1.00
N1       0.14950    0.72872    0.59395   1.00
C6       0.13347    0.72771    0.55810   1.00
C6       0.12449    0.74772    0.61757   1.00
C6       0.09785    0.74644    0.55873   1.00
C6       0.09215    0.75917    0.59656   1.00
H3       0.14673    0.71417    0.53281   1.00
H3       0.12945    0.75310    0.64831   1.00
H3       0.07820    0.75034    0.53436   1.00
H3       0.06720    0.77500    0.60758   1.00
H2       0.27123    0.81392    0.36228   1.00
H2       0.25181    0.84438    0.40001   1.00
N1       0.31169    0.83214    0.40523   1.00
C6       0.34497    0.83517    0.38078   1.00
C6       0.32469    0.84363    0.44285   1.00
C6       0.37629    0.84777    0.40277   1.00
C6       0.36383    0.85296    0.44091   1.00
H3       0.34547    0.82849    0.34992   1.00
H3       0.30663    0.84445    0.46876   1.00
H3       0.40555    0.85267    0.39205   1.00
H3       0.38172    0.86255    0.46505   1.00
C4       0.25024    0.97915    0.24970   1.00
C4       0.24976    1.02085    0.25030   1.00
C3       0.28371    0.95751    0.26058   1.00
C3       0.26797    1.04252    0.28034   1.00
C3       0.21682    0.95738    0.23896   1.00
C3       0.23167    1.04259    0.22020   1.00
C2       0.25012    0.89482    0.25010   1.00
C2       0.25012    1.10518    0.25010   1.00
C3a      0.28380    0.91599    0.26082   1.00
C3       0.26809    1.08382    0.28018   1.00
C3       0.21683    0.91611    0.23918   1.00
C3a      0.23173    1.08403    0.21993   1.00
H1       0.31005    0.97294    0.26866   1.00
H1       0.28194    1.02750    0.30437   1.00
C5       0.32005    0.89410    0.27240   1.00
H1       0.28232    1.09933    0.30375   1.00
H1       0.19056    0.90056    0.23106   1.00
C5       0.21190    1.10535    0.18704   1.00
H1       0.21828    1.02747    0.19592   1.00
H1       0.19013    0.97230    0.23106   1.00
H2       0.18024    1.09837    0.18779   1.00
H2       0.21470    1.13747    0.19059   1.00
N1       0.22872    1.09395    0.14950   1.00
C6       0.22771    1.05810    0.13347   1.00
C6       0.24772    1.11757    0.12449   1.00
C6       0.24644    1.05873    0.09785   1.00
C6       0.25917    1.09656    0.09215   1.00
H3       0.21417    1.03281    0.14673   1.00
H3       0.25310    1.14831    0.12945   1.00
H3       0.25034    1.03436    0.07820   1.00
H3       0.27500    1.10758    0.06720   1.00
H2       0.31392    0.86228    0.27123   1.00
H2       0.34438    0.90001    0.25181   1.00
N1       0.33214    0.90523    0.31169   1.00
C6       0.33517    0.88078    0.34497   1.00
C6       0.34363    0.94285    0.32469   1.00
C6       0.34777    0.90277    0.37629   1.00
C6       0.35296    0.94091    0.36383   1.00
H3       0.32849    0.84992    0.34547   1.00
H3       0.34445    0.96876    0.30663   1.00
H3       0.35267    0.89205    0.40555   1.00
H3       0.36255    0.96505    0.38172   1.00
C4       0.02085    0.74970    0.24976   1.00
C4       -0.02085   0.75030    0.25024   1.00
C3       0.04249    0.76058    0.21629   1.00
C3       -0.04252   0.78034    0.23203   1.00
C3       0.04262    0.73896    0.28318   1.00
C3       -0.04259   0.72020    0.26833   1.00
C2       0.10518    0.75010    0.24988   1.00
C2       -0.10518   0.75010    0.24988   1.00
C3a      0.08401    0.76082    0.21620   1.00
C3       -0.08382   0.78018    0.23191   1.00
C3       0.08389    0.73918    0.28317   1.00
C3a      -0.08403   0.71993    0.26827   1.00
H1       0.02706    0.76866    0.18995   1.00
H1       -0.02750   0.80437    0.21806   1.00
C5       0.10590    0.77240    0.17995   1.00
H1       -0.09933   0.80375    0.21768   1.00
H1       0.09944    0.73106    0.30944   1.00
C5       -0.10535   0.68704    0.28810   1.00
H1       -0.02747   0.69592    0.28172   1.00
H1       0.02770    0.73106    0.30987   1.00
H2       -0.09837   0.68779    0.31976   1.00
H2       -0.13747   0.69059    0.28530   1.00
N1       -0.09395   0.64950    0.27128   1.00
C6       -0.05810   0.63347    0.27229   1.00
C6       -0.11757   0.62449    0.25228   1.00
C6       -0.05873   0.59785    0.25356   1.00
C6       -0.09656   0.59215    0.24083   1.00
H3       -0.03281   0.64673    0.28583   1.00
H3       -0.14831   0.62945    0.24690   1.00
H3       -0.03436   0.57820    0.24966   1.00
H3       -0.10758   0.56720    0.22500   1.00
H2       0.13772    0.77123    0.18608   1.00
H2       0.09999    0.75181    0.15562   1.00
N1       0.09477    0.81169    0.16786   1.00
C6       0.11922    0.84497    0.16483   1.00
C6       0.05715    0.82469    0.15637   1.00
C6       0.09723    0.87629    0.15223   1.00
C6       0.05909    0.86383    0.14704   1.00
H3       0.15008    0.84547    0.17151   1.00
H3       0.03124    0.80663    0.15555   1.00
H3       0.10795    0.90555    0.14733   1.00
H3       0.03495    0.88172    0.13745   1.00
C4       0.47915    0.74970    0.25024   1.00
C4       0.52085    0.75030    0.24976   1.00
C3       0.45751    0.76058    0.28371   1.00
C3       0.54252    0.78034    0.26797   1.00
C3       0.45738    0.73896    0.21682   1.00
C3       0.54259    0.72020    0.23167   1.00
C2       0.39482    0.75010    0.25012   1.00
C2       0.60518    0.75010    0.25012   1.00
C3a      0.41599    0.76082    0.28380   1.00
C3       0.58382    0.78018    0.26809   1.00
C3       0.41611    0.73918    0.21683   1.00
C3a      0.58403    0.71993    0.23173   1.00
H1       0.47294    0.76866    0.31005   1.00
H1       0.52750    0.80437    0.28194   1.00
C5       0.39410    0.77240    0.32005   1.00
H1       0.59933    0.80375    0.28232   1.00
H1       0.40056    0.73106    0.19056   1.00
C5       0.60535    0.68704    0.21190   1.00
H1       0.52747    0.69592    0.21828   1.00
H1       0.47230    0.73106    0.19013   1.00
H2       0.59837    0.68779    0.18024   1.00
H2       0.63747    0.69059    0.21470   1.00
N1       0.59395    0.64950    0.22872   1.00
C6       0.55810    0.63347    0.22771   1.00
C6       0.61757    0.62449    0.24772   1.00
C6       0.55873    0.59785    0.24644   1.00
C6       0.59656    0.59215    0.25917   1.00
H3       0.53281    0.64673    0.21417   1.00
H3       0.64831    0.62945    0.25310   1.00
H3       0.53436    0.57820    0.25034   1.00
H3       0.60758    0.56720    0.27500   1.00
H2       0.36228    0.77123    0.31392   1.00
H2       0.40001    0.75181    0.34438   1.00
N1       0.40523    0.81169    0.33214   1.00
C6       0.38078    0.84497    0.33517   1.00
C6       0.44285    0.82469    0.34363   1.00
C6       0.40277    0.87629    0.34777   1.00
C6       0.44091    0.86383    0.35296   1.00
H3       0.34992    0.84547    0.32849   1.00
H3       0.46876    0.80663    0.34445   1.00
H3       0.39205    0.90555    0.35267   1.00
H3       0.46505    0.88172    0.36255   1.00
C4       0.24976    0.52085    0.24970   1.00
C4       0.25024    0.47915    0.25030   1.00
C3       0.21629    0.54249    0.26058   1.00
C3       0.23203    0.45748    0.28034   1.00
C3       0.28318    0.54262    0.23896   1.00
C3       0.26833    0.45741    0.22020   1.00
C2       0.24988    0.60518    0.25010   1.00
C2       0.24988    0.39482    0.25010   1.00
C3a      0.21620    0.58401    0.26082   1.00
C3       0.23191    0.41618    0.28018   1.00
C3       0.28317    0.58389    0.23918   1.00
C3a      0.26827    0.41597    0.21993   1.00
H1       0.18995    0.52706    0.26866   1.00
H1       0.21806    0.47250    0.30437   1.00
C5       0.17995    0.60590    0.27240   1.00
H1       0.21768    0.40067    0.30375   1.00
H1       0.30944    0.59944    0.23106   1.00
C5       0.28810    0.39465    0.18704   1.00
H1       0.28172    0.47253    0.19592   1.00
H1       0.30987    0.52770    0.23106   1.00
H2       0.31976    0.40163    0.18779   1.00
H2       0.28530    0.36253    0.19059   1.00
N1       0.27128    0.40605    0.14950   1.00
C6       0.27229    0.44190    0.13347   1.00
C6       0.25228    0.38243    0.12449   1.00
C6       0.25356    0.44127    0.09785   1.00
C6       0.24083    0.40344    0.09215   1.00
H3       0.28583    0.46719    0.14673   1.00
H3       0.24690    0.35169    0.12945   1.00
H3       0.24966    0.46564    0.07820   1.00
H3       0.22500    0.39242    0.06720   1.00
H2       0.18608    0.63772    0.27123   1.00
H2       0.15562    0.59999    0.25181   1.00
N1       0.16786    0.59477    0.31169   1.00
C6       0.16483    0.61922    0.34497   1.00
C6       0.15637    0.55715    0.32469   1.00
C6       0.15223    0.59723    0.37629   1.00
C6       0.14704    0.55909    0.36383   1.00
H3       0.17151    0.65008    0.34547   1.00
H3       0.15555    0.53124    0.30663   1.00
H3       0.14733    0.60795    0.40555   1.00
H3       0.13745    0.53495    0.38172   1.00
C4       0.24970    0.74976    0.02085   1.00
C4       0.25030    0.75024    -0.02085   1.00
C3       0.26058    0.71629    0.04249   1.00
C3       0.28034    0.73203    -0.04252   1.00
C3       0.23896    0.78318    0.04262   1.00
C3       0.22020    0.76833    -0.04259   1.00
C2       0.25010    0.74988    0.10518   1.00
C2       0.25010    0.74988    -0.10518   1.00
C3a      0.26082    0.71620    0.08401   1.00
C3       0.28018    0.73191    -0.08382   1.00
C3       0.23918    0.78317    0.08389   1.00
C3a      0.21993    0.76827    -0.08403   1.00
H1       0.26866    0.68995    0.02706   1.00
H1       0.30437    0.71806    -0.02750   1.00
C5       0.27240    0.67995    0.10590   1.00
H1       0.30375    0.71768    -0.09933   1.00
H1       0.23106    0.80944    0.09944   1.00
C5       0.18704    0.78810    -0.10535   1.00
H1       0.19592    0.78172    -0.02747   1.00
H1       0.23106    0.80987    0.02770   1.00
H2       0.18779    0.81976    -0.09837   1.00
H2       0.19059    0.78530    -0.13747   1.00
N1       0.14950    0.77128    -0.09395   1.00
C6       0.13347    0.77229    -0.05810   1.00
C6       0.12449    0.75228    -0.11757   1.00
C6       0.09785    0.75356    -0.05873   1.00
C6       0.09215    0.74083    -0.09656   1.00
H3       0.14673    0.78583    -0.03281   1.00
H3       0.12945    0.74690    -0.14831   1.00
H3       0.07820    0.74966    -0.03436   1.00
H3       0.06720    0.72500    -0.10758   1.00
H2       0.27123    0.68608    0.13772   1.00
H2       0.25181    0.65562    0.09999   1.00
N1       0.31169    0.66786    0.09477   1.00
C6       0.34497    0.66483    0.11922   1.00
C6       0.32469    0.65637    0.05715   1.00
C6       0.37629    0.65223    0.09723   1.00
C6       0.36383    0.64704    0.05909   1.00
H3       0.34547    0.67151    0.15008   1.00
H3       0.30663    0.65555    0.03124   1.00
H3       0.40555    0.64733    0.10795   1.00
H3       0.38172    0.63745    0.03495   1.00
C4       0.74970    0.25024    0.47915   1.00
C4       0.75030    0.24976    0.52085   1.00
C3       0.76058    0.28371    0.45751   1.00
C3       0.78034    0.26797    0.54252   1.00
C3       0.73896    0.21682    0.45738   1.00
C3       0.72020    0.23167    0.54259   1.00
C2       0.75010    0.25012    0.39482   1.00
C2       0.75010    0.25012    0.60518   1.00
C3a      0.76082    0.28380    0.41599   1.00
C3       0.78018    0.26809    0.58382   1.00
C3       0.73918    0.21683    0.41611   1.00
C3a      0.71993    0.23173    0.58403   1.00
H1       0.76866    0.31005    0.47294   1.00
H1       0.80437    0.28194    0.52750   1.00
C5       0.77240    0.32005    0.39410   1.00
H1       0.80375    0.28232    0.59933   1.00
H1       0.73106    0.19056    0.40056   1.00
C5       0.68704    0.21190    0.60535   1.00
H1       0.69592    0.21828    0.52747   1.00
H1       0.73106    0.19013    0.47230   1.00
H2       0.68779    0.18024    0.59837   1.00
H2       0.69059    0.21470    0.63747   1.00
N1       0.64950    0.22872    0.59395   1.00
C6       0.63347    0.22771    0.55810   1.00
C6       0.62449    0.24772    0.61757   1.00
C6       0.59785    0.24644    0.55873   1.00
C6       0.59215    0.25917    0.59656   1.00
H3       0.64673    0.21417    0.53281   1.00
H3       0.62945    0.25310    0.64831   1.00
H3       0.57820    0.25034    0.53436   1.00
H3       0.56720    0.27500    0.60758   1.00
H2       0.77123    0.31392    0.36228   1.00
H2       0.75181    0.34438    0.40001   1.00
N1       0.81169    0.33214    0.40523   1.00
C6       0.84497    0.33517    0.38078   1.00
C6       0.82469    0.34363    0.44285   1.00
C6       0.87629    0.34777    0.40277   1.00
C6       0.86383    0.35296    0.44091   1.00
H3       0.84547    0.32849    0.34992   1.00
H3       0.80663    0.34445    0.46876   1.00
H3       0.90555    0.35267    0.39205   1.00
H3       0.88172    0.36255    0.46505   1.00
C4       0.75024    0.47915    0.24970   1.00
C4       0.74976    0.52085    0.25030   1.00
C3       0.78371    0.45751    0.26058   1.00
C3       0.76797    0.54252    0.28034   1.00
C3       0.71682    0.45738    0.23896   1.00
C3       0.73167    0.54259    0.22020   1.00
C2       0.75012    0.39482    0.25010   1.00
C2       0.75012    0.60518    0.25010   1.00
C3a      0.78380    0.41599    0.26082   1.00
C3       0.76809    0.58382    0.28018   1.00
C3       0.71683    0.41611    0.23918   1.00
C3a      0.73173    0.58403    0.21993   1.00
H1       0.81005    0.47294    0.26866   1.00
H1       0.78194    0.52750    0.30437   1.00
C5       0.82005    0.39410    0.27240   1.00
H1       0.78232    0.59933    0.30375   1.00
H1       0.69056    0.40056    0.23106   1.00
C5       0.71190    0.60535    0.18704   1.00
H1       0.71828    0.52747    0.19592   1.00
H1       0.69013    0.47230    0.23106   1.00
H2       0.68024    0.59837    0.18779   1.00
H2       0.71470    0.63747    0.19059   1.00
N1       0.72872    0.59395    0.14950   1.00
C6       0.72771    0.55810    0.13347   1.00
C6       0.74772    0.61757    0.12449   1.00
C6       0.74644    0.55873    0.09785   1.00
C6       0.75917    0.59656    0.09215   1.00
H3       0.71417    0.53281    0.14673   1.00
H3       0.75310    0.64831    0.12945   1.00
H3       0.75034    0.53436    0.07820   1.00
H3       0.77500    0.60758    0.06720   1.00
H2       0.81392    0.36228    0.27123   1.00
H2       0.84438    0.40001    0.25181   1.00
N1       0.83214    0.40523    0.31169   1.00
C6       0.83517    0.38078    0.34497   1.00
C6       0.84363    0.44285    0.32469   1.00
C6       0.84777    0.40277    0.37629   1.00
C6       0.85296    0.44091    0.36383   1.00
H3       0.82849    0.34992    0.34547   1.00
H3       0.84445    0.46876    0.30663   1.00
H3       0.85267    0.39205    0.40555   1.00
H3       0.86255    0.46505    0.38172   1.00
C4       0.52085    0.24970    0.24976   1.00
C4       0.47915    0.25030    0.25024   1.00
C3       0.54249    0.26058    0.21629   1.00
C3       0.45748    0.28034    0.23203   1.00
C3       0.54262    0.23896    0.28318   1.00
C3       0.45741    0.22020    0.26833   1.00
C2       0.60518    0.25010    0.24988   1.00
C2       0.39482    0.25010    0.24988   1.00
C3a      0.58401    0.26082    0.21620   1.00
C3       0.41618    0.28018    0.23191   1.00
C3       0.58389    0.23918    0.28317   1.00
C3a      0.41597    0.21993    0.26827   1.00
H1       0.52706    0.26866    0.18995   1.00
H1       0.47250    0.30437    0.21806   1.00
C5       0.60590    0.27240    0.17995   1.00
H1       0.40067    0.30375    0.21768   1.00
H1       0.59944    0.23106    0.30944   1.00
C5       0.39465    0.18704    0.28810   1.00
H1       0.47253    0.19592    0.28172   1.00
H1       0.52770    0.23106    0.30987   1.00
H2       0.40163    0.18779    0.31976   1.00
H2       0.36253    0.19059    0.28530   1.00
N1       0.40605    0.14950    0.27128   1.00
C6       0.44190    0.13347    0.27229   1.00
C6       0.38243    0.12449    0.25228   1.00
C6       0.44127    0.09785    0.25356   1.00
C6       0.40344    0.09215    0.24083   1.00
H3       0.46719    0.14673    0.28583   1.00
H3       0.35169    0.12945    0.24690   1.00
H3       0.46564    0.07820    0.24966   1.00
H3       0.39242    0.06720    0.22500   1.00
H2       0.63772    0.27123    0.18608   1.00
H2       0.59999    0.25181    0.15562   1.00
N1       0.59477    0.31169    0.16786   1.00
C6       0.61922    0.34497    0.16483   1.00
C6       0.55715    0.32469    0.15637   1.00
C6       0.59723    0.37629    0.15223   1.00
C6       0.55909    0.36383    0.14704   1.00
H3       0.65008    0.34547    0.17151   1.00
H3       0.53124    0.30663    0.15555   1.00
H3       0.60795    0.40555    0.14733   1.00
H3       0.53495    0.38172    0.13745   1.00
C4       0.97915    0.24970    0.25024   1.00
C4       1.02085    0.25030    0.24976   1.00
C3       0.95751    0.26058    0.28371   1.00
C3       1.04252    0.28034    0.26797   1.00
C3       0.95738    0.23896    0.21682   1.00
C3       1.04259    0.22020    0.23167   1.00
C2       0.89482    0.25010    0.25012   1.00
C2       1.10518    0.25010    0.25012   1.00
C3a      0.91599    0.26082    0.28380   1.00
C3       1.08382    0.28018    0.26809   1.00
C3       0.91611    0.23918    0.21683   1.00
C3a      1.08403    0.21993    0.23173   1.00
H1       0.97294    0.26866    0.31005   1.00
H1       1.02750    0.30437    0.28194   1.00
C5       0.89410    0.27240    0.32005   1.00
H1       1.09933    0.30375    0.28232   1.00
H1       0.90056    0.23106    0.19056   1.00
C5       1.10535    0.18704    0.21190   1.00
H1       1.02747    0.19592    0.21828   1.00
H1       0.97230    0.23106    0.19013   1.00
H2       1.09837    0.18779    0.18024   1.00
H2       1.13747    0.19059    0.21470   1.00
N1       1.09395    0.14950    0.22872   1.00
C6       1.05810    0.13347    0.22771   1.00
C6       1.11757    0.12449    0.24772   1.00
C6       1.05873    0.09785    0.24644   1.00
C6       1.09656    0.09215    0.25917   1.00
H3       1.03281    0.14673    0.21417   1.00
H3       1.14831    0.12945    0.25310   1.00
H3       1.03436    0.07820    0.25034   1.00
H3       1.10758    0.06720    0.27500   1.00
H2       0.86228    0.27123    0.31392   1.00
H2       0.90001    0.25181    0.34438   1.00
N1       0.90523    0.31169    0.33214   1.00
C6       0.88078    0.34497    0.33517   1.00
C6       0.94285    0.32469    0.34363   1.00
C6       0.90277    0.37629    0.34777   1.00
C6       0.94091    0.36383    0.35296   1.00
H3       0.84992    0.34547    0.32849   1.00
H3       0.96876    0.30663    0.34445   1.00
H3       0.89205    0.40555    0.35267   1.00
H3       0.96505    0.38172    0.36255   1.00
C4       0.74976    0.02085    0.24970   1.00
C4       0.75024    -0.02085   0.25030   1.00
C3       0.71629    0.04249    0.26058   1.00
C3       0.73203    -0.04252   0.28034   1.00
C3       0.78318    0.04262    0.23896   1.00
C3       0.76833    -0.04259   0.22020   1.00
C2       0.74988    0.10518    0.25010   1.00
C2       0.74988    -0.10518   0.25010   1.00
C3a      0.71620    0.08401    0.26082   1.00
C3       0.73191    -0.08382   0.28018   1.00
C3       0.78317    0.08389    0.23918   1.00
C3a      0.76827    -0.08403   0.21993   1.00
H1       0.68995    0.02706    0.26866   1.00
H1       0.71806    -0.02750   0.30437   1.00
C5       0.67995    0.10590    0.27240   1.00
H1       0.71768    -0.09933   0.30375   1.00
H1       0.80944    0.09944    0.23106   1.00
C5       0.78810    -0.10535   0.18704   1.00
H1       0.78172    -0.02747   0.19592   1.00
H1       0.80987    0.02770    0.23106   1.00
H2       0.81976    -0.09837   0.18779   1.00
H2       0.78530    -0.13747   0.19059   1.00
N1       0.77128    -0.09395   0.14950   1.00
C6       0.77229    -0.05810   0.13347   1.00
C6       0.75228    -0.11757   0.12449   1.00
C6       0.75356    -0.05873   0.09785   1.00
C6       0.74083    -0.09656   0.09215   1.00
H3       0.78583    -0.03281   0.14673   1.00
H3       0.74690    -0.14831   0.12945   1.00
H3       0.74966    -0.03436   0.07820   1.00
H3       0.72500    -0.10758   0.06720   1.00
H2       0.68608    0.13772    0.27123   1.00
H2       0.65562    0.09999    0.25181   1.00
N1       0.66786    0.09477    0.31169   1.00
C6       0.66483    0.11922    0.34497   1.00
C6       0.65637    0.05715    0.32469   1.00
C6       0.65223    0.09723    0.37629   1.00
C6       0.64704    0.05909    0.36383   1.00
H3       0.67151    0.15008    0.34547   1.00
H3       0.65555    0.03124    0.30663   1.00
H3       0.64733    0.10795    0.40555   1.00
H3       0.63745    0.03495    0.38172   1.00
C4       0.74970    0.24976    0.02085   1.00
C4       0.75030    0.25024    -0.02085   1.00
C3       0.76058    0.21629    0.04249   1.00
C3       0.78034    0.23203    -0.04252   1.00
C3       0.73896    0.28318    0.04262   1.00
C3       0.72020    0.26833    -0.04259   1.00
C2       0.75010    0.24988    0.10518   1.00
C2       0.75010    0.24988    -0.10518   1.00
C3a      0.76082    0.21620    0.08401   1.00
C3       0.78018    0.23191    -0.08382   1.00
C3       0.73918    0.28317    0.08389   1.00
C3a      0.71993    0.26827    -0.08403   1.00
H1       0.76866    0.18995    0.02706   1.00
H1       0.80437    0.21806    -0.02750   1.00
C5       0.77240    0.17995    0.10590   1.00
H1       0.80375    0.21768    -0.09933   1.00
H1       0.73106    0.30944    0.09944   1.00
C5       0.68704    0.28810    -0.10535   1.00
H1       0.69592    0.28172    -0.02747   1.00
H1       0.73106    0.30987    0.02770   1.00
H2       0.68779    0.31976    -0.09837   1.00
H2       0.69059    0.28530    -0.13747   1.00
N1       0.64950    0.27128    -0.09395   1.00
C6       0.63347    0.27229    -0.05810   1.00
C6       0.62449    0.25228    -0.11757   1.00
C6       0.59785    0.25356    -0.05873   1.00
C6       0.59215    0.24083    -0.09656   1.00
H3       0.64673    0.28583    -0.03281   1.00
H3       0.62945    0.24690    -0.14831   1.00
H3       0.57820    0.24966    -0.03436   1.00
H3       0.56720    0.22500    -0.10758   1.00
H2       0.77123    0.18608    0.13772   1.00
H2       0.75181    0.15562    0.09999   1.00
N1       0.81169    0.16786    0.09477   1.00
C6       0.84497    0.16483    0.11922   1.00
C6       0.82469    0.15637    0.05715   1.00
C6       0.87629    0.15223    0.09723   1.00
C6       0.86383    0.14704    0.05909   1.00
H3       0.84547    0.17151    0.15008   1.00
H3       0.80663    0.15555    0.03124   1.00
H3       0.90555    0.14733    0.10795   1.00
H3       0.88172    0.13745    0.03495   1.00
C4       0.99970    1.00024    1.22915   1.00
C4       1.00030    0.99976    1.27085   1.00
C3       1.01058    1.03371    1.20751   1.00
C3       1.03034    1.01797    1.29252   1.00
C3       0.98896    0.96682    1.20738   1.00
C3       0.97020    0.98167    1.29259   1.00
C2       1.00010    1.00012    1.14482   1.00
C2       1.00010    1.00012    1.35518   1.00
C3a      1.01082    1.03380    1.16599   1.00
C3       1.03018    1.01809    1.33382   1.00
C3       0.98918    0.96683    1.16611   1.00
C3a      0.96993    0.98173    1.33403   1.00
H1       1.01866    1.06005    1.22294   1.00
H1       1.05437    1.03194    1.27750   1.00
C5       1.02240    1.07005    1.14410   1.00
H1       1.05375    1.03232    1.34933   1.00
H1       0.98106    0.94056    1.15056   1.00
C5       0.93704    0.96190    1.35535   1.00
H1       0.94592    0.96828    1.27747   1.00
H1       0.98106    0.94013    1.22230   1.00
H2       0.93779    0.93024    1.34837   1.00
H2       0.94059    0.96470    1.38747   1.00
N1       0.89950    0.97872    1.34395   1.00
C6       0.88347    0.97771    1.30810   1.00
C6       0.87449    0.99772    1.36757   1.00
C6       0.84785    0.99644    1.30873   1.00
C6       0.84215    1.00917    1.34656   1.00
H3       0.89673    0.96417    1.28281   1.00
H3       0.87945    1.00310    1.39831   1.00
H3       0.82820    1.00034    1.28436   1.00
H3       0.81720    1.02500    1.35758   1.00
H2       1.02123    1.06392    1.11228   1.00
H2       1.00181    1.09438    1.15001   1.00
N1       1.06169    1.08214    1.15523   1.00
C6       1.09497    1.08517    1.13078   1.00
C6       1.07469    1.09363    1.19285   1.00
C6       1.12629    1.09777    1.15277   1.00
C6       1.11383    1.10296    1.19091   1.00
H3       1.09547    1.07849    1.09992   1.00
H3       1.05663    1.09445    1.21876   1.00
H3       1.15555    1.10267    1.14205   1.00
H3       1.13172    1.11255    1.21505   1.00
C4       1.00024    1.22915    0.99970   1.00
C4       0.99976    1.27085    1.00030   1.00
C3       1.03371    1.20751    1.01058   1.00
C3       1.01797    1.29252    1.03034   1.00
C3       0.96682    1.20738    0.98896   1.00
C3       0.98167    1.29259    0.97020   1.00
C2       1.00012    1.14482    1.00010   1.00
C2       1.00012    1.35518    1.00010   1.00
C3a      1.03380    1.16599    1.01082   1.00
C3       1.01809    1.33382    1.03018   1.00
C3       0.96683    1.16611    0.98918   1.00
C3a      0.98173    1.33403    0.96993   1.00
H1       1.06005    1.22294    1.01866   1.00
H1       1.03194    1.27750    1.05437   1.00
C5       1.07005    1.14410    1.02240   1.00
H1       1.03232    1.34933    1.05375   1.00
H1       0.94056    1.15056    0.98106   1.00
C5       0.96190    1.35535    0.93704   1.00
H1       0.96828    1.27747    0.94592   1.00
H1       0.94013    1.22230    0.98106   1.00
H2       0.93024    1.34837    0.93779   1.00
H2       0.96470    1.38747    0.94059   1.00
N1       0.97872    1.34395    0.89950   1.00
C6       0.97771    1.30810    0.88347   1.00
C6       0.99772    1.36757    0.87449   1.00
C6       0.99644    1.30873    0.84785   1.00
C6       1.00917    1.34656    0.84215   1.00
H3       0.96417    1.28281    0.89673   1.00
H3       1.00310    1.39831    0.87945   1.00
H3       1.00034    1.28436    0.82820   1.00
H3       1.02500    1.35758    0.81720   1.00
H2       1.06392    1.11228    1.02123   1.00
H2       1.09438    1.15001    1.00181   1.00
N1       1.08214    1.15523    1.06169   1.00
C6       1.08517    1.13078    1.09497   1.00
C6       1.09363    1.19285    1.07469   1.00
C6       1.09777    1.15277    1.12629   1.00
C6       1.10296    1.19091    1.11383   1.00
H3       1.07849    1.09992    1.09547   1.00
H3       1.09445    1.21876    1.05663   1.00
H3       1.10267    1.14205    1.15555   1.00
H3       1.11255    1.21505    1.13172   1.00
C4       0.77085    0.99970    0.99976   1.00
C4       0.72915    1.00030    1.00024   1.00
C3       0.79249    1.01058    0.96629   1.00
C3       0.70748    1.03034    0.98203   1.00
C3       0.79262    0.98896    1.03318   1.00
C3       0.70741    0.97020    1.01833   1.00
C2       0.85518    1.00010    0.99988   1.00
C2       0.64482    1.00010    0.99988   1.00
C3a      0.83401    1.01082    0.96620   1.00
C3       0.66618    1.03018    0.98191   1.00
C3       0.83389    0.98918    1.03317   1.00
C3a      0.66597    0.96993    1.01827   1.00
H1       0.77706    1.01866    0.93995   1.00
H1       0.72250    1.05437    0.96806   1.00
C5       0.85590    1.02240    0.92995   1.00
H1       0.65067    1.05375    0.96768   1.00
H1       0.84944    0.98106    1.05944   1.00
C5       0.64465    0.93704    1.03810   1.00
H1       0.72253    0.94592    1.03172   1.00
H1       0.77770    0.98106    1.05987   1.00
H2       0.65163    0.93779    1.06976   1.00
H2       0.61253    0.94059    1.03530   1.00
N1       0.65605    0.89950    1.02128   1.00
C6       0.69190    0.88347    1.02229   1.00
C6       0.63243    0.87449    1.00228   1.00
C6       0.69127    0.84785    1.00356   1.00
C6       0.65344    0.84215    0.99083   1.00
H3       0.71719    0.89673    1.03583   1.00
H3       0.60169    0.87945    0.99690   1.00
H3       0.71564    0.82820    0.99966   1.00
H3       0.64242    0.81720    0.97500   1.00
H2       0.88772    1.02123    0.93608   1.00
H2       0.84999    1.00181    0.90562   1.00
N1       0.84477    1.06169    0.91786   1.00
C6       0.86922    1.09497    0.91483   1.00
C6       0.80715    1.07469    0.90637   1.00
C6       0.84723    1.12629    0.90223   1.00
C6       0.80909    1.11383    0.89704   1.00
H3       0.90008    1.09547    0.92151   1.00
H3       0.78124    1.05663    0.90555   1.00
H3       0.85795    1.15555    0.89733   1.00
H3       0.78495    1.13172    0.88745   1.00
C4       1.22915    0.99970    1.00024   1.00
C4       1.27085    1.00030    0.99976   1.00
C3       1.20751    1.01058    1.03371   1.00
C3       1.29252    1.03034    1.01797   1.00
C3       1.20738    0.98896    0.96682   1.00
C3       1.29259    0.97020    0.98167   1.00
C2       1.14482    1.00010    1.00012   1.00
C2       1.35518    1.00010    1.00012   1.00
C3a      1.16599    1.01082    1.03380   1.00
C3       1.33382    1.03018    1.01809   1.00
C3       1.16611    0.98918    0.96683   1.00
C3a      1.33403    0.96993    0.98173   1.00
H1       1.22294    1.01866    1.06005   1.00
H1       1.27750    1.05437    1.03194   1.00
C5       1.14410    1.02240    1.07005   1.00
H1       1.34933    1.05375    1.03232   1.00
H1       1.15056    0.98106    0.94056   1.00
C5       1.35535    0.93704    0.96190   1.00
H1       1.27747    0.94592    0.96828   1.00
H1       1.22230    0.98106    0.94013   1.00
H2       1.34837    0.93779    0.93024   1.00
H2       1.38747    0.94059    0.96470   1.00
N1       1.34395    0.89950    0.97872   1.00
C6       1.30810    0.88347    0.97771   1.00
C6       1.36757    0.87449    0.99772   1.00
C6       1.30873    0.84785    0.99644   1.00
C6       1.34656    0.84215    1.00917   1.00
H3       1.28281    0.89673    0.96417   1.00
H3       1.39831    0.87945    1.00310   1.00
H3       1.28436    0.82820    1.00034   1.00
H3       1.35758    0.81720    1.02500   1.00
H2       1.11228    1.02123    1.06392   1.00
H2       1.15001    1.00181    1.09438   1.00
N1       1.15523    1.06169    1.08214   1.00
C6       1.13078    1.09497    1.08517   1.00
C6       1.19285    1.07469    1.09363   1.00
C6       1.15277    1.12629    1.09777   1.00
C6       1.19091    1.11383    1.10296   1.00
H3       1.09992    1.09547    1.07849   1.00
H3       1.21876    1.05663    1.09445   1.00
H3       1.14205    1.15555    1.10267   1.00
H3       1.21505    1.13172    1.11255   1.00
C4       0.99976    0.77085    0.99970   1.00
C4       1.00024    0.72915    1.00030   1.00
C3       0.96629    0.79249    1.01058   1.00
C3       0.98203    0.70748    1.03034   1.00
C3       1.03318    0.79262    0.98896   1.00
C3       1.01833    0.70741    0.97020   1.00
C2       0.99988    0.85518    1.00010   1.00
C2       0.99988    0.64482    1.00010   1.00
C3a      0.96620    0.83401    1.01082   1.00
C3       0.98191    0.66618    1.03018   1.00
C3       1.03317    0.83389    0.98918   1.00
C3a      1.01827    0.66597    0.96993   1.00
H1       0.93995    0.77706    1.01866   1.00
H1       0.96806    0.72250    1.05437   1.00
C5       0.92995    0.85590    1.02240   1.00
H1       0.96768    0.65067    1.05375   1.00
H1       1.05944    0.84944    0.98106   1.00
C5       1.03810    0.64465    0.93704   1.00
H1       1.03172    0.72253    0.94592   1.00
H1       1.05987    0.77770    0.98106   1.00
H2       1.06976    0.65163    0.93779   1.00
H2       1.03530    0.61253    0.94059   1.00
N1       1.02128    0.65605    0.89950   1.00
C6       1.02229    0.69190    0.88347   1.00
C6       1.00228    0.63243    0.87449   1.00
C6       1.00356    0.69127    0.84785   1.00
C6       0.99083    0.65344    0.84215   1.00
H3       1.03583    0.71719    0.89673   1.00
H3       0.99690    0.60169    0.87945   1.00
H3       0.99966    0.71564    0.82820   1.00
H3       0.97500    0.64242    0.81720   1.00
H2       0.93608    0.88772    1.02123   1.00
H2       0.90562    0.84999    1.00181   1.00
N1       0.91786    0.84477    1.06169   1.00
C6       0.91483    0.86922    1.09497   1.00
C6       0.90637    0.80715    1.07469   1.00
C6       0.90223    0.84723    1.12629   1.00
C6       0.89704    0.80909    1.11383   1.00
H3       0.92151    0.90008    1.09547   1.00
H3       0.90555    0.78124    1.05663   1.00
H3       0.89733    0.85795    1.15555   1.00
H3       0.88745    0.78495    1.13172   1.00
C4       0.99970    0.99976    0.77085   1.00
C4       1.00030    1.00024    0.72915   1.00
C3       1.01058    0.96629    0.79249   1.00
C3       1.03034    0.98203    0.70748   1.00
C3       0.98896    1.03318    0.79262   1.00
C3       0.97020    1.01833    0.70741   1.00
C2       1.00010    0.99988    0.85518   1.00
C2       1.00010    0.99988    0.64482   1.00
C3a      1.01082    0.96620    0.83401   1.00
C3       1.03018    0.98191    0.66618   1.00
C3       0.98918    1.03317    0.83389   1.00
C3a      0.96993    1.01827    0.66597   1.00
H1       1.01866    0.93995    0.77706   1.00
H1       1.05437    0.96806    0.72250   1.00
C5       1.02240    0.92995    0.85590   1.00
H1       1.05375    0.96768    0.65067   1.00
H1       0.98106    1.05944    0.84944   1.00
C5       0.93704    1.03810    0.64465   1.00
H1       0.94592    1.03172    0.72253   1.00
H1       0.98106    1.05987    0.77770   1.00
H2       0.93779    1.06976    0.65163   1.00
H2       0.94059    1.03530    0.61253   1.00
N1       0.89950    1.02128    0.65605   1.00
C6       0.88347    1.02229    0.69190   1.00
C6       0.87449    1.00228    0.63243   1.00
C6       0.84785    1.00356    0.69127   1.00
C6       0.84215    0.99083    0.65344   1.00
H3       0.89673    1.03583    0.71719   1.00
H3       0.87945    0.99690    0.60169   1.00
H3       0.82820    0.99966    0.71564   1.00
H3       0.81720    0.97500    0.64242   1.00
H2       1.02123    0.93608    0.88772   1.00
H2       1.00181    0.90562    0.84999   1.00
N1       1.06169    0.91786    0.84477   1.00
C6       1.09497    0.91483    0.86922   1.00
C6       1.07469    0.90637    0.80715   1.00
C6       1.12629    0.90223    0.84723   1.00
C6       1.11383    0.89704    0.80909   1.00
H3       1.09547    0.92151    0.90008   1.00
H3       1.05663    0.90555    0.78124   1.00
H3       1.15555    0.89733    0.85795   1.00
H3       1.13172    0.88745    0.78495   1.00
C4       0.49970    0.50024    1.22915   1.00
C4       0.50030    0.49976    1.27085   1.00
C3       0.51058    0.53371    1.20751   1.00
C3       0.53034    0.51797    1.29252   1.00
C3       0.48896    0.46682    1.20738   1.00
C3       0.47020    0.48167    1.29259   1.00
C2       0.50010    0.50012    1.14482   1.00
C2       0.50010    0.50012    1.35518   1.00
C3a      0.51082    0.53380    1.16599   1.00
C3       0.53018    0.51809    1.33382   1.00
C3       0.48918    0.46683    1.16611   1.00
C3a      0.46993    0.48173    1.33403   1.00
H1       0.51866    0.56005    1.22294   1.00
H1       0.55437    0.53194    1.27750   1.00
C5       0.52240    0.57005    1.14410   1.00
H1       0.55375    0.53232    1.34933   1.00
H1       0.48106    0.44056    1.15056   1.00
C5       0.43704    0.46190    1.35535   1.00
H1       0.44592    0.46828    1.27747   1.00
H1       0.48106    0.44013    1.22230   1.00
H2       0.43779    0.43024    1.34837   1.00
H2       0.44059    0.46470    1.38747   1.00
N1       0.39950    0.47872    1.34395   1.00
C6       0.38347    0.47771    1.30810   1.00
C6       0.37449    0.49772    1.36757   1.00
C6       0.34785    0.49644    1.30873   1.00
C6       0.34215    0.50917    1.34656   1.00
H3       0.39673    0.46417    1.28281   1.00
H3       0.37945    0.50310    1.39831   1.00
H3       0.32820    0.50034    1.28436   1.00
H3       0.31720    0.52500    1.35758   1.00
H2       0.52123    0.56392    1.11228   1.00
H2       0.50181    0.59438    1.15001   1.00
N1       0.56169    0.58214    1.15523   1.00
C6       0.59497    0.58517    1.13078   1.00
C6       0.57469    0.59363    1.19285   1.00
C6       0.62629    0.59777    1.15277   1.00
C6       0.61383    0.60296    1.19091   1.00
H3       0.59547    0.57849    1.09992   1.00
H3       0.55663    0.59445    1.21876   1.00
H3       0.65555    0.60267    1.14205   1.00
H3       0.63172    0.61255    1.21505   1.00
C4       0.50024    0.72915    0.99970   1.00
C4       0.49976    0.77085    1.00030   1.00
C3       0.53371    0.70751    1.01058   1.00
C3       0.51797    0.79252    1.03034   1.00
C3       0.46682    0.70738    0.98896   1.00
C3       0.48167    0.79259    0.97020   1.00
C2       0.50012    0.64482    1.00010   1.00
C2       0.50012    0.85518    1.00010   1.00
C3a      0.53380    0.66599    1.01082   1.00
C3       0.51809    0.83382    1.03018   1.00
C3       0.46683    0.66611    0.98918   1.00
C3a      0.48173    0.83403    0.96993   1.00
H1       0.56005    0.72294    1.01866   1.00
H1       0.53194    0.77750    1.05437   1.00
C5       0.57005    0.64410    1.02240   1.00
H1       0.53232    0.84933    1.05375   1.00
H1       0.44056    0.65056    0.98106   1.00
C5       0.46190    0.85535    0.93704   1.00
H1       0.46828    0.77747    0.94592   1.00
H1       0.44013    0.72230    0.98106   1.00
H2       0.43024    0.84837    0.93779   1.00
H2       0.46470    0.88747    0.94059   1.00
N1       0.47872    0.84395    0.89950   1.00
C6       0.47771    0.80810    0.88347   1.00
C6       0.49772    0.86757    0.87449   1.00
C6       0.49644    0.80873    0.84785   1.00
C6       0.50917    0.84656    0.84215   1.00
H3       0.46417    0.78281    0.89673   1.00
H3       0.50310    0.89831    0.87945   1.00
H3       0.50034    0.78436    0.82820   1.00
H3       0.52500    0.85758    0.81720   1.00
H2       0.56392    0.61228    1.02123   1.00
H2       0.59438    0.65001    1.00181   1.00
N1       0.58214    0.65523    1.06169   1.00
C6       0.58517    0.63078    1.09497   1.00
C6       0.59363    0.69285    1.07469   1.00
C6       0.59777    0.65277    1.12629   1.00
C6       0.60296    0.69091    1.11383   1.00
H3       0.57849    0.59992    1.09547   1.00
H3       0.59445    0.71876    1.05663   1.00
H3       0.60267    0.64205    1.15555   1.00
H3       0.61255    0.71505    1.13172   1.00
C4       0.27085    0.49970    0.99976   1.00
C4       0.22915    0.50030    1.00024   1.00
C3       0.29249    0.51058    0.96629   1.00
C3       0.20748    0.53034    0.98203   1.00
C3       0.29262    0.48896    1.03318   1.00
C3       0.20741    0.47020    1.01833   1.00
C2       0.35518    0.50010    0.99988   1.00
C2       0.14482    0.50010    0.99988   1.00
C3a      0.33401    0.51082    0.96620   1.00
C3       0.16618    0.53018    0.98191   1.00
C3       0.33389    0.48918    1.03317   1.00
C3a      0.16597    0.46993    1.01827   1.00
H1       0.27706    0.51866    0.93995   1.00
H1       0.22250    0.55437    0.96806   1.00
C5       0.35590    0.52240    0.92995   1.00
H1       0.15067    0.55375    0.96768   1.00
H1       0.34944    0.48106    1.05944   1.00
C5       0.14465    0.43704    1.03810   1.00
H1       0.22253    0.44592    1.03172   1.00
H1       0.27770    0.48106    1.05987   1.00
H2       0.15163    0.43779    1.06976   1.00
H2       0.11253    0.44059    1.03530   1.00
N1       0.15605    0.39950    1.02128   1.00
C6       0.19190    0.38347    1.02229   1.00
C6       0.13243    0.37449    1.00228   1.00
C6       0.19127    0.34785    1.00356   1.00
C6       0.15344    0.34215    0.99083   1.00
H3       0.21719    0.39673    1.03583   1.00
H3       0.10169    0.37945    0.99690   1.00
H3       0.21564    0.32820    0.99966   1.00
H3       0.14242    0.31720    0.97500   1.00
H2       0.38772    0.52123    0.93608   1.00
H2       0.34999    0.50181    0.90562   1.00
N1       0.34477    0.56169    0.91786   1.00
C6       0.36922    0.59497    0.91483   1.00
C6       0.30715    0.57469    0.90637   1.00
C6       0.34723    0.62629    0.90223   1.00
C6       0.30909    0.61383    0.89704   1.00
H3       0.40008    0.59547    0.92151   1.00
H3       0.28124    0.55663    0.90555   1.00
H3       0.35795    0.65555    0.89733   1.00
H3       0.28495    0.63172    0.88745   1.00
C4       0.72915    0.49970    1.00024   1.00
C4       0.77085    0.50030    0.99976   1.00
C3       0.70751    0.51058    1.03371   1.00
C3       0.79252    0.53034    1.01797   1.00
C3       0.70738    0.48896    0.96682   1.00
C3       0.79259    0.47020    0.98167   1.00
C2       0.64482    0.50010    1.00012   1.00
C2       0.85518    0.50010    1.00012   1.00
C3a      0.66599    0.51082    1.03380   1.00
C3       0.83382    0.53018    1.01809   1.00
C3       0.66611    0.48918    0.96683   1.00
C3a      0.83403    0.46993    0.98173   1.00
H1       0.72294    0.51866    1.06005   1.00
H1       0.77750    0.55437    1.03194   1.00
C5       0.64410    0.52240    1.07005   1.00
H1       0.84933    0.55375    1.03232   1.00
H1       0.65056    0.48106    0.94056   1.00
C5       0.85535    0.43704    0.96190   1.00
H1       0.77747    0.44592    0.96828   1.00
H1       0.72230    0.48106    0.94013   1.00
H2       0.84837    0.43779    0.93024   1.00
H2       0.88747    0.44059    0.96470   1.00
N1       0.84395    0.39950    0.97872   1.00
C6       0.80810    0.38347    0.97771   1.00
C6       0.86757    0.37449    0.99772   1.00
C6       0.80873    0.34785    0.99644   1.00
C6       0.84656    0.34215    1.00917   1.00
H3       0.78281    0.39673    0.96417   1.00
H3       0.89831    0.37945    1.00310   1.00
H3       0.78436    0.32820    1.00034   1.00
H3       0.85758    0.31720    1.02500   1.00
H2       0.61228    0.52123    1.06392   1.00
H2       0.65001    0.50181    1.09438   1.00
N1       0.65523    0.56169    1.08214   1.00
C6       0.63078    0.59497    1.08517   1.00
C6       0.69285    0.57469    1.09363   1.00
C6       0.65277    0.62629    1.09777   1.00
C6       0.69091    0.61383    1.10296   1.00
H3       0.59992    0.59547    1.07849   1.00
H3       0.71876    0.55663    1.09445   1.00
H3       0.64205    0.65555    1.10267   1.00
H3       0.71505    0.63172    1.11255   1.00
C4       0.49976    0.27085    0.99970   1.00
C4       0.50024    0.22915    1.00030   1.00
C3       0.46629    0.29249    1.01058   1.00
C3       0.48203    0.20748    1.03034   1.00
C3       0.53318    0.29262    0.98896   1.00
C3       0.51833    0.20741    0.97020   1.00
C2       0.49988    0.35518    1.00010   1.00
C2       0.49988    0.14482    1.00010   1.00
C3a      0.46620    0.33401    1.01082   1.00
C3       0.48191    0.16618    1.03018   1.00
C3       0.53317    0.33389    0.98918   1.00
C3a      0.51827    0.16597    0.96993   1.00
H1       0.43995    0.27706    1.01866   1.00
H1       0.46806    0.22250    1.05437   1.00
C5       0.42995    0.35590    1.02240   1.00
H1       0.46768    0.15067    1.05375   1.00
H1       0.55944    0.34944    0.98106   1.00
C5       0.53810    0.14465    0.93704   1.00
H1       0.53172    0.22253    0.94592   1.00
H1       0.55987    0.27770    0.98106   1.00
H2       0.56976    0.15163    0.93779   1.00
H2       0.53530    0.11253    0.94059   1.00
N1       0.52128    0.15605    0.89950   1.00
C6       0.52229    0.19190    0.88347   1.00
C6       0.50228    0.13243    0.87449   1.00
C6       0.50356    0.19127    0.84785   1.00
C6       0.49083    0.15344    0.84215   1.00
H3       0.53583    0.21719    0.89673   1.00
H3       0.49690    0.10169    0.87945   1.00
H3       0.49966    0.21564    0.82820   1.00
H3       0.47500    0.14242    0.81720   1.00
H2       0.43608    0.38772    1.02123   1.00
H2       0.40562    0.34999    1.00181   1.00
N1       0.41786    0.34477    1.06169   1.00
C6       0.41483    0.36922    1.09497   1.00
C6       0.40637    0.30715    1.07469   1.00
C6       0.40223    0.34723    1.12629   1.00
C6       0.39704    0.30909    1.11383   1.00
H3       0.42151    0.40008    1.09547   1.00
H3       0.40555    0.28124    1.05663   1.00
H3       0.39733    0.35795    1.15555   1.00
H3       0.38745    0.28495    1.13172   1.00
C4       0.49970    0.49976    0.77085   1.00
C4       0.50030    0.50024    0.72915   1.00
C3       0.51058    0.46629    0.79249   1.00
C3       0.53034    0.48203    0.70748   1.00
C3       0.48896    0.53318    0.79262   1.00
C3       0.47020    0.51833    0.70741   1.00
C2       0.50010    0.49988    0.85518   1.00
C2       0.50010    0.49988    0.64482   1.00
C3a      0.51082    0.46620    0.83401   1.00
C3       0.53018    0.48191    0.66618   1.00
C3       0.48918    0.53317    0.83389   1.00
C3a      0.46993    0.51827    0.66597   1.00
H1       0.51866    0.43995    0.77706   1.00
H1       0.55437    0.46806    0.72250   1.00
C5       0.52240    0.42995    0.85590   1.00
H1       0.55375    0.46768    0.65067   1.00
H1       0.48106    0.55944    0.84944   1.00
C5       0.43704    0.53810    0.64465   1.00
H1       0.44592    0.53172    0.72253   1.00
H1       0.48106    0.55987    0.77770   1.00
H2       0.43779    0.56976    0.65163   1.00
H2       0.44059    0.53530    0.61253   1.00
N1       0.39950    0.52128    0.65605   1.00
C6       0.38347    0.52229    0.69190   1.00
C6       0.37449    0.50228    0.63243   1.00
C6       0.34785    0.50356    0.69127   1.00
C6       0.34215    0.49083    0.65344   1.00
H3       0.39673    0.53583    0.71719   1.00
H3       0.37945    0.49690    0.60169   1.00
H3       0.32820    0.49966    0.71564   1.00
H3       0.31720    0.47500    0.64242   1.00
H2       0.52123    0.43608    0.88772   1.00
H2       0.50181    0.40562    0.84999   1.00
N1       0.56169    0.41786    0.84477   1.00
C6       0.59497    0.41483    0.86922   1.00
C6       0.57469    0.40637    0.80715   1.00
C6       0.62629    0.40223    0.84723   1.00
C6       0.61383    0.39704    0.80909   1.00
H3       0.59547    0.42151    0.90008   1.00
H3       0.55663    0.40555    0.78124   1.00
H3       0.65555    0.39733    0.85795   1.00
H3       0.63172    0.38745    0.78495   1.00
C4       0.49970    1.00024    0.72915   1.00
C4       0.50030    0.99976    0.77085   1.00
C3       0.51058    1.03371    0.70751   1.00
C3       0.53034    1.01797    0.79252   1.00
C3       0.48896    0.96682    0.70738   1.00
C3       0.47020    0.98167    0.79259   1.00
C2       0.50010    1.00012    0.64482   1.00
C2       0.50010    1.00012    0.85518   1.00
C3a      0.51082    1.03380    0.66599   1.00
C3       0.53018    1.01809    0.83382   1.00
C3       0.48918    0.96683    0.66611   1.00
C3a      0.46993    0.98173    0.83403   1.00
H1       0.51866    1.06005    0.72294   1.00
H1       0.55437    1.03194    0.77750   1.00
C5       0.52240    1.07005    0.64410   1.00
H1       0.55375    1.03232    0.84933   1.00
H1       0.48106    0.94056    0.65056   1.00
C5       0.43704    0.96190    0.85535   1.00
H1       0.44592    0.96828    0.77747   1.00
H1       0.48106    0.94013    0.72230   1.00
H2       0.43779    0.93024    0.84837   1.00
H2       0.44059    0.96470    0.88747   1.00
N1       0.39950    0.97872    0.84395   1.00
C6       0.38347    0.97771    0.80810   1.00
C6       0.37449    0.99772    0.86757   1.00
C6       0.34785    0.99644    0.80873   1.00
C6       0.34215    1.00917    0.84656   1.00
H3       0.39673    0.96417    0.78281   1.00
H3       0.37945    1.00310    0.89831   1.00
H3       0.32820    1.00034    0.78436   1.00
H3       0.31720    1.02500    0.85758   1.00
H2       0.52123    1.06392    0.61228   1.00
H2       0.50181    1.09438    0.65001   1.00
N1       0.56169    1.08214    0.65523   1.00
C6       0.59497    1.08517    0.63078   1.00
C6       0.57469    1.09363    0.69285   1.00
C6       0.62629    1.09777    0.65277   1.00
C6       0.61383    1.10296    0.69091   1.00
H3       0.59547    1.07849    0.59992   1.00
H3       0.55663    1.09445    0.71876   1.00
H3       0.65555    1.10267    0.64205   1.00
H3       0.63172    1.11255    0.71505   1.00
C4       0.50024    1.22915    0.49970   1.00
C4       0.49976    1.27085    0.50030   1.00
C3       0.53371    1.20751    0.51058   1.00
C3       0.51797    1.29252    0.53034   1.00
C3       0.46682    1.20738    0.48896   1.00
C3       0.48167    1.29259    0.47020   1.00
C2       0.50012    1.14482    0.50010   1.00
C2       0.50012    1.35518    0.50010   1.00
C3a      0.53380    1.16599    0.51082   1.00
C3       0.51809    1.33382    0.53018   1.00
C3       0.46683    1.16611    0.48918   1.00
C3a      0.48173    1.33403    0.46993   1.00
H1       0.56005    1.22294    0.51866   1.00
H1       0.53194    1.27750    0.55437   1.00
C5       0.57005    1.14410    0.52240   1.00
H1       0.53232    1.34933    0.55375   1.00
H1       0.44056    1.15056    0.48106   1.00
C5       0.46190    1.35535    0.43704   1.00
H1       0.46828    1.27747    0.44592   1.00
H1       0.44013    1.22230    0.48106   1.00
H2       0.43024    1.34837    0.43779   1.00
H2       0.46470    1.38747    0.44059   1.00
N1       0.47872    1.34395    0.39950   1.00
C6       0.47771    1.30810    0.38347   1.00
C6       0.49772    1.36757    0.37449   1.00
C6       0.49644    1.30873    0.34785   1.00
C6       0.50917    1.34656    0.34215   1.00
H3       0.46417    1.28281    0.39673   1.00
H3       0.50310    1.39831    0.37945   1.00
H3       0.50034    1.28436    0.32820   1.00
H3       0.52500    1.35758    0.31720   1.00
H2       0.56392    1.11228    0.52123   1.00
H2       0.59438    1.15001    0.50181   1.00
N1       0.58214    1.15523    0.56169   1.00
C6       0.58517    1.13078    0.59497   1.00
C6       0.59363    1.19285    0.57469   1.00
C6       0.59777    1.15277    0.62629   1.00
C6       0.60296    1.19091    0.61383   1.00
H3       0.57849    1.09992    0.59547   1.00
H3       0.59445    1.21876    0.55663   1.00
H3       0.60267    1.14205    0.65555   1.00
H3       0.61255    1.21505    0.63172   1.00
C4       0.27085    0.99970    0.49976   1.00
C4       0.22915    1.00030    0.50024   1.00
C3       0.29249    1.01058    0.46629   1.00
C3       0.20748    1.03034    0.48203   1.00
C3       0.29262    0.98896    0.53318   1.00
C3       0.20741    0.97020    0.51833   1.00
C2       0.35518    1.00010    0.49988   1.00
C2       0.14482    1.00010    0.49988   1.00
C3a      0.33401    1.01082    0.46620   1.00
C3       0.16618    1.03018    0.48191   1.00
C3       0.33389    0.98918    0.53317   1.00
C3a      0.16597    0.96993    0.51827   1.00
H1       0.27706    1.01866    0.43995   1.00
H1       0.22250    1.05437    0.46806   1.00
C5       0.35590    1.02240    0.42995   1.00
H1       0.15067    1.05375    0.46768   1.00
H1       0.34944    0.98106    0.55944   1.00
C5       0.14465    0.93704    0.53810   1.00
H1       0.22253    0.94592    0.53172   1.00
H1       0.27770    0.98106    0.55987   1.00
H2       0.15163    0.93779    0.56976   1.00
H2       0.11253    0.94059    0.53530   1.00
N1       0.15605    0.89950    0.52128   1.00
C6       0.19190    0.88347    0.52229   1.00
C6       0.13243    0.87449    0.50228   1.00
C6       0.19127    0.84785    0.50356   1.00
C6       0.15344    0.84215    0.49083   1.00
H3       0.21719    0.89673    0.53583   1.00
H3       0.10169    0.87945    0.49690   1.00
H3       0.21564    0.82820    0.49966   1.00
H3       0.14242    0.81720    0.47500   1.00
H2       0.38772    1.02123    0.43608   1.00
H2       0.34999    1.00181    0.40562   1.00
N1       0.34477    1.06169    0.41786   1.00
C6       0.36922    1.09497    0.41483   1.00
C6       0.30715    1.07469    0.40637   1.00
C6       0.34723    1.12629    0.40223   1.00
C6       0.30909    1.11383    0.39704   1.00
H3       0.40008    1.09547    0.42151   1.00
H3       0.28124    1.05663    0.40555   1.00
H3       0.35795    1.15555    0.39733   1.00
H3       0.28495    1.13172    0.38745   1.00
C4       0.72915    0.99970    0.50024   1.00
C4       0.77085    1.00030    0.49976   1.00
C3       0.70751    1.01058    0.53371   1.00
C3       0.79252    1.03034    0.51797   1.00
C3       0.70738    0.98896    0.46682   1.00
C3       0.79259    0.97020    0.48167   1.00
C2       0.64482    1.00010    0.50012   1.00
C2       0.85518    1.00010    0.50012   1.00
C3a      0.66599    1.01082    0.53380   1.00
C3       0.83382    1.03018    0.51809   1.00
C3       0.66611    0.98918    0.46683   1.00
C3a      0.83403    0.96993    0.48173   1.00
H1       0.72294    1.01866    0.56005   1.00
H1       0.77750    1.05437    0.53194   1.00
C5       0.64410    1.02240    0.57005   1.00
H1       0.84933    1.05375    0.53232   1.00
H1       0.65056    0.98106    0.44056   1.00
C5       0.85535    0.93704    0.46190   1.00
H1       0.77747    0.94592    0.46828   1.00
H1       0.72230    0.98106    0.44013   1.00
H2       0.84837    0.93779    0.43024   1.00
H2       0.88747    0.94059    0.46470   1.00
N1       0.84395    0.89950    0.47872   1.00
C6       0.80810    0.88347    0.47771   1.00
C6       0.86757    0.87449    0.49772   1.00
C6       0.80873    0.84785    0.49644   1.00
C6       0.84656    0.84215    0.50917   1.00
H3       0.78281    0.89673    0.46417   1.00
H3       0.89831    0.87945    0.50310   1.00
H3       0.78436    0.82820    0.50034   1.00
H3       0.85758    0.81720    0.52500   1.00
H2       0.61228    1.02123    0.56392   1.00
H2       0.65001    1.00181    0.59438   1.00
N1       0.65523    1.06169    0.58214   1.00
C6       0.63078    1.09497    0.58517   1.00
C6       0.69285    1.07469    0.59363   1.00
C6       0.65277    1.12629    0.59777   1.00
C6       0.69091    1.11383    0.60296   1.00
H3       0.59992    1.09547    0.57849   1.00
H3       0.71876    1.05663    0.59445   1.00
H3       0.64205    1.15555    0.60267   1.00
H3       0.71505    1.13172    0.61255   1.00
C4       0.49976    0.77085    0.49970   1.00
C4       0.50024    0.72915    0.50030   1.00
C3       0.46629    0.79249    0.51058   1.00
C3       0.48203    0.70748    0.53034   1.00
C3       0.53318    0.79262    0.48896   1.00
C3       0.51833    0.70741    0.47020   1.00
C2       0.49988    0.85518    0.50010   1.00
C2       0.49988    0.64482    0.50010   1.00
C3a      0.46620    0.83401    0.51082   1.00
C3       0.48191    0.66618    0.53018   1.00
C3       0.53317    0.83389    0.48918   1.00
C3a      0.51827    0.66597    0.46993   1.00
H1       0.43995    0.77706    0.51866   1.00
H1       0.46806    0.72250    0.55437   1.00
C5       0.42995    0.85590    0.52240   1.00
H1       0.46768    0.65067    0.55375   1.00
H1       0.55944    0.84944    0.48106   1.00
C5       0.53810    0.64465    0.43704   1.00
H1       0.53172    0.72253    0.44592   1.00
H1       0.55987    0.77770    0.48106   1.00
H2       0.56976    0.65163    0.43779   1.00
H2       0.53530    0.61253    0.44059   1.00
N1       0.52128    0.65605    0.39950   1.00
C6       0.52229    0.69190    0.38347   1.00
C6       0.50228    0.63243    0.37449   1.00
C6       0.50356    0.69127    0.34785   1.00
C6       0.49083    0.65344    0.34215   1.00
H3       0.53583    0.71719    0.39673   1.00
H3       0.49690    0.60169    0.37945   1.00
H3       0.49966    0.71564    0.32820   1.00
H3       0.47500    0.64242    0.31720   1.00
H2       0.43608    0.88772    0.52123   1.00
H2       0.40562    0.84999    0.50181   1.00
N1       0.41786    0.84477    0.56169   1.00
C6       0.41483    0.86922    0.59497   1.00
C6       0.40637    0.80715    0.57469   1.00
C6       0.40223    0.84723    0.62629   1.00
C6       0.39704    0.80909    0.61383   1.00
H3       0.42151    0.90008    0.59547   1.00
H3       0.40555    0.78124    0.55663   1.00
H3       0.39733    0.85795    0.65555   1.00
H3       0.38745    0.78495    0.63172   1.00
C4       0.49970    0.99976    0.27085   1.00
C4       0.50030    1.00024    0.22915   1.00
C3       0.51058    0.96629    0.29249   1.00
C3       0.53034    0.98203    0.20748   1.00
C3       0.48896    1.03318    0.29262   1.00
C3       0.47020    1.01833    0.20741   1.00
C2       0.50010    0.99988    0.35518   1.00
C2       0.50010    0.99988    0.14482   1.00
C3a      0.51082    0.96620    0.33401   1.00
C3       0.53018    0.98191    0.16618   1.00
C3       0.48918    1.03317    0.33389   1.00
C3a      0.46993    1.01827    0.16597   1.00
H1       0.51866    0.93995    0.27706   1.00
H1       0.55437    0.96806    0.22250   1.00
C5       0.52240    0.92995    0.35590   1.00
H1       0.55375    0.96768    0.15067   1.00
H1       0.48106    1.05944    0.34944   1.00
C5       0.43704    1.03810    0.14465   1.00
H1       0.44592    1.03172    0.22253   1.00
H1       0.48106    1.05987    0.27770   1.00
H2       0.43779    1.06976    0.15163   1.00
H2       0.44059    1.03530    0.11253   1.00
N1       0.39950    1.02128    0.15605   1.00
C6       0.38347    1.02229    0.19190   1.00
C6       0.37449    1.00228    0.13243   1.00
C6       0.34785    1.00356    0.19127   1.00
C6       0.34215    0.99083    0.15344   1.00
H3       0.39673    1.03583    0.21719   1.00
H3       0.37945    0.99690    0.10169   1.00
H3       0.32820    0.99966    0.21564   1.00
H3       0.31720    0.97500    0.14242   1.00
H2       0.52123    0.93608    0.38772   1.00
H2       0.50181    0.90562    0.34999   1.00
N1       0.56169    0.91786    0.34477   1.00
C6       0.59497    0.91483    0.36922   1.00
C6       0.57469    0.90637    0.30715   1.00
C6       0.62629    0.90223    0.34723   1.00
C6       0.61383    0.89704    0.30909   1.00
H3       0.59547    0.92151    0.40008   1.00
H3       0.55663    0.90555    0.28124   1.00
H3       0.65555    0.89733    0.35795   1.00
H3       0.63172    0.88745    0.28495   1.00
C4       0.99970    0.50024    0.72915   1.00
C4       1.00030    0.49976    0.77085   1.00
C3       1.01058    0.53371    0.70751   1.00
C3       1.03034    0.51797    0.79252   1.00
C3       0.98896    0.46682    0.70738   1.00
C3       0.97020    0.48167    0.79259   1.00
C2       1.00010    0.50012    0.64482   1.00
C2       1.00010    0.50012    0.85518   1.00
C3a      1.01082    0.53380    0.66599   1.00
C3       1.03018    0.51809    0.83382   1.00
C3       0.98918    0.46683    0.66611   1.00
C3a      0.96993    0.48173    0.83403   1.00
H1       1.01866    0.56005    0.72294   1.00
H1       1.05437    0.53194    0.77750   1.00
C5       1.02240    0.57005    0.64410   1.00
H1       1.05375    0.53232    0.84933   1.00
H1       0.98106    0.44056    0.65056   1.00
C5       0.93704    0.46190    0.85535   1.00
H1       0.94592    0.46828    0.77747   1.00
H1       0.98106    0.44013    0.72230   1.00
H2       0.93779    0.43024    0.84837   1.00
H2       0.94059    0.46470    0.88747   1.00
N1       0.89950    0.47872    0.84395   1.00
C6       0.88347    0.47771    0.80810   1.00
C6       0.87449    0.49772    0.86757   1.00
C6       0.84785    0.49644    0.80873   1.00
C6       0.84215    0.50917    0.84656   1.00
H3       0.89673    0.46417    0.78281   1.00
H3       0.87945    0.50310    0.89831   1.00
H3       0.82820    0.50034    0.78436   1.00
H3       0.81720    0.52500    0.85758   1.00
H2       1.02123    0.56392    0.61228   1.00
H2       1.00181    0.59438    0.65001   1.00
N1       1.06169    0.58214    0.65523   1.00
C6       1.09497    0.58517    0.63078   1.00
C6       1.07469    0.59363    0.69285   1.00
C6       1.12629    0.59777    0.65277   1.00
C6       1.11383    0.60296    0.69091   1.00
H3       1.09547    0.57849    0.59992   1.00
H3       1.05663    0.59445    0.71876   1.00
H3       1.15555    0.60267    0.64205   1.00
H3       1.13172    0.61255    0.71505   1.00
C4       1.00024    0.72915    0.49970   1.00
C4       0.99976    0.77085    0.50030   1.00
C3       1.03371    0.70751    0.51058   1.00
C3       1.01797    0.79252    0.53034   1.00
C3       0.96682    0.70738    0.48896   1.00
C3       0.98167    0.79259    0.47020   1.00
C2       1.00012    0.64482    0.50010   1.00
C2       1.00012    0.85518    0.50010   1.00
C3a      1.03380    0.66599    0.51082   1.00
C3       1.01809    0.83382    0.53018   1.00
C3       0.96683    0.66611    0.48918   1.00
C3a      0.98173    0.83403    0.46993   1.00
H1       1.06005    0.72294    0.51866   1.00
H1       1.03194    0.77750    0.55437   1.00
C5       1.07005    0.64410    0.52240   1.00
H1       1.03232    0.84933    0.55375   1.00
H1       0.94056    0.65056    0.48106   1.00
C5       0.96190    0.85535    0.43704   1.00
H1       0.96828    0.77747    0.44592   1.00
H1       0.94013    0.72230    0.48106   1.00
H2       0.93024    0.84837    0.43779   1.00
H2       0.96470    0.88747    0.44059   1.00
N1       0.97872    0.84395    0.39950   1.00
C6       0.97771    0.80810    0.38347   1.00
C6       0.99772    0.86757    0.37449   1.00
C6       0.99644    0.80873    0.34785   1.00
C6       1.00917    0.84656    0.34215   1.00
H3       0.96417    0.78281    0.39673   1.00
H3       1.00310    0.89831    0.37945   1.00
H3       1.00034    0.78436    0.32820   1.00
H3       1.02500    0.85758    0.31720   1.00
H2       1.06392    0.61228    0.52123   1.00
H2       1.09438    0.65001    0.50181   1.00
N1       1.08214    0.65523    0.56169   1.00
C6       1.08517    0.63078    0.59497   1.00
C6       1.09363    0.69285    0.57469   1.00
C6       1.09777    0.65277    0.62629   1.00
C6       1.10296    0.69091    0.61383   1.00
H3       1.07849    0.59992    0.59547   1.00
H3       1.09445    0.71876    0.55663   1.00
H3       1.10267    0.64205    0.65555   1.00
H3       1.11255    0.71505    0.63172   1.00
C4       0.77085    0.49970    0.49976   1.00
C4       0.72915    0.50030    0.50024   1.00
C3       0.79249    0.51058    0.46629   1.00
C3       0.70748    0.53034    0.48203   1.00
C3       0.79262    0.48896    0.53318   1.00
C3       0.70741    0.47020    0.51833   1.00
C2       0.85518    0.50010    0.49988   1.00
C2       0.64482    0.50010    0.49988   1.00
C3a      0.83401    0.51082    0.46620   1.00
C3       0.66618    0.53018    0.48191   1.00
C3       0.83389    0.48918    0.53317   1.00
C3a      0.66597    0.46993    0.51827   1.00
H1       0.77706    0.51866    0.43995   1.00
H1       0.72250    0.55437    0.46806   1.00
C5       0.85590    0.52240    0.42995   1.00
H1       0.65067    0.55375    0.46768   1.00
H1       0.84944    0.48106    0.55944   1.00
C5       0.64465    0.43704    0.53810   1.00
H1       0.72253    0.44592    0.53172   1.00
H1       0.77770    0.48106    0.55987   1.00
H2       0.65163    0.43779    0.56976   1.00
H2       0.61253    0.44059    0.53530   1.00
N1       0.65605    0.39950    0.52128   1.00
C6       0.69190    0.38347    0.52229   1.00
C6       0.63243    0.37449    0.50228   1.00
C6       0.69127    0.34785    0.50356   1.00
C6       0.65344    0.34215    0.49083   1.00
H3       0.71719    0.39673    0.53583   1.00
H3       0.60169    0.37945    0.49690   1.00
H3       0.71564    0.32820    0.49966   1.00
H3       0.64242    0.31720    0.47500   1.00
H2       0.88772    0.52123    0.43608   1.00
H2       0.84999    0.50181    0.40562   1.00
N1       0.84477    0.56169    0.41786   1.00
C6       0.86922    0.59497    0.41483   1.00
C6       0.80715    0.57469    0.40637   1.00
C6       0.84723    0.62629    0.40223   1.00
C6       0.80909    0.61383    0.39704   1.00
H3       0.90008    0.59547    0.42151   1.00
H3       0.78124    0.55663    0.40555   1.00
H3       0.85795    0.65555    0.39733   1.00
H3       0.78495    0.63172    0.38745   1.00
C4       1.22915    0.49970    0.50024   1.00
C4       1.27085    0.50030    0.49976   1.00
C3       1.20751    0.51058    0.53371   1.00
C3       1.29252    0.53034    0.51797   1.00
C3       1.20738    0.48896    0.46682   1.00
C3       1.29259    0.47020    0.48167   1.00
C2       1.14482    0.50010    0.50012   1.00
C2       1.35518    0.50010    0.50012   1.00
C3a      1.16599    0.51082    0.53380   1.00
C3       1.33382    0.53018    0.51809   1.00
C3       1.16611    0.48918    0.46683   1.00
C3a      1.33403    0.46993    0.48173   1.00
H1       1.22294    0.51866    0.56005   1.00
H1       1.27750    0.55437    0.53194   1.00
C5       1.14410    0.52240    0.57005   1.00
H1       1.34933    0.55375    0.53232   1.00
H1       1.15056    0.48106    0.44056   1.00
C5       1.35535    0.43704    0.46190   1.00
H1       1.27747    0.44592    0.46828   1.00
H1       1.22230    0.48106    0.44013   1.00
H2       1.34837    0.43779    0.43024   1.00
H2       1.38747    0.44059    0.46470   1.00
N1       1.34395    0.39950    0.47872   1.00
C6       1.30810    0.38347    0.47771   1.00
C6       1.36757    0.37449    0.49772   1.00
C6       1.30873    0.34785    0.49644   1.00
C6       1.34656    0.34215    0.50917   1.00
H3       1.28281    0.39673    0.46417   1.00
H3       1.39831    0.37945    0.50310   1.00
H3       1.28436    0.32820    0.50034   1.00
H3       1.35758    0.31720    0.52500   1.00
H2       1.11228    0.52123    0.56392   1.00
H2       1.15001    0.50181    0.59438   1.00
N1       1.15523    0.56169    0.58214   1.00
C6       1.13078    0.59497    0.58517   1.00
C6       1.19285    0.57469    0.59363   1.00
C6       1.15277    0.62629    0.59777   1.00
C6       1.19091    0.61383    0.60296   1.00
H3       1.09992    0.59547    0.57849   1.00
H3       1.21876    0.55663    0.59445   1.00
H3       1.14205    0.65555    0.60267   1.00
H3       1.21505    0.63172    0.61255   1.00
C4       0.99976    0.27085    0.49970   1.00
C4       1.00024    0.22915    0.50030   1.00
C3       0.96629    0.29249    0.51058   1.00
C3       0.98203    0.20748    0.53034   1.00
C3       1.03318    0.29262    0.48896   1.00
C3       1.01833    0.20741    0.47020   1.00
C2       0.99988    0.35518    0.50010   1.00
C2       0.99988    0.14482    0.50010   1.00
C3a      0.96620    0.33401    0.51082   1.00
C3       0.98191    0.16618    0.53018   1.00
C3       1.03317    0.33389    0.48918   1.00
C3a      1.01827    0.16597    0.46993   1.00
H1       0.93995    0.27706    0.51866   1.00
H1       0.96806    0.22250    0.55437   1.00
C5       0.92995    0.35590    0.52240   1.00
H1       0.96768    0.15067    0.55375   1.00
H1       1.05944    0.34944    0.48106   1.00
C5       1.03810    0.14465    0.43704   1.00
H1       1.03172    0.22253    0.44592   1.00
H1       1.05987    0.27770    0.48106   1.00
H2       1.06976    0.15163    0.43779   1.00
H2       1.03530    0.11253    0.44059   1.00
N1       1.02128    0.15605    0.39950   1.00
C6       1.02229    0.19190    0.38347   1.00
C6       1.00228    0.13243    0.37449   1.00
C6       1.00356    0.19127    0.34785   1.00
C6       0.99083    0.15344    0.34215   1.00
H3       1.03583    0.21719    0.39673   1.00
H3       0.99690    0.10169    0.37945   1.00
H3       0.99966    0.21564    0.32820   1.00
H3       0.97500    0.14242    0.31720   1.00
H2       0.93608    0.38772    0.52123   1.00
H2       0.90562    0.34999    0.50181   1.00
N1       0.91786    0.34477    0.56169   1.00
C6       0.91483    0.36922    0.59497   1.00
C6       0.90637    0.30715    0.57469   1.00
C6       0.90223    0.34723    0.62629   1.00
C6       0.89704    0.30909    0.61383   1.00
H3       0.92151    0.40008    0.59547   1.00
H3       0.90555    0.28124    0.55663   1.00
H3       0.89733    0.35795    0.65555   1.00
H3       0.88745    0.28495    0.63172   1.00
C4       0.99970    0.49976    0.27085   1.00
C4       1.00030    0.50024    0.22915   1.00
C3       1.01058    0.46629    0.29249   1.00
C3       1.03034    0.48203    0.20748   1.00
C3       0.98896    0.53318    0.29262   1.00
C3       0.97020    0.51833    0.20741   1.00
C2       1.00010    0.49988    0.35518   1.00
C2       1.00010    0.49988    0.14482   1.00
C3a      1.01082    0.46620    0.33401   1.00
C3       1.03018    0.48191    0.16618   1.00
C3       0.98918    0.53317    0.33389   1.00
C3a      0.96993    0.51827    0.16597   1.00
H1       1.01866    0.43995    0.27706   1.00
H1       1.05437    0.46806    0.22250   1.00
C5       1.02240    0.42995    0.35590   1.00
H1       1.05375    0.46768    0.15067   1.00
H1       0.98106    0.55944    0.34944   1.00
C5       0.93704    0.53810    0.14465   1.00
H1       0.94592    0.53172    0.22253   1.00
H1       0.98106    0.55987    0.27770   1.00
H2       0.93779    0.56976    0.15163   1.00
H2       0.94059    0.53530    0.11253   1.00
N1       0.89950    0.52128    0.15605   1.00
C6       0.88347    0.52229    0.19190   1.00
C6       0.87449    0.50228    0.13243   1.00
C6       0.84785    0.50356    0.19127   1.00
C6       0.84215    0.49083    0.15344   1.00
H3       0.89673    0.53583    0.21719   1.00
H3       0.87945    0.49690    0.10169   1.00
H3       0.82820    0.49966    0.21564   1.00
H3       0.81720    0.47500    0.14242   1.00
H2       1.02123    0.43608    0.38772   1.00
H2       1.00181    0.40562    0.34999   1.00
N1       1.06169    0.41786    0.34477   1.00
C6       1.09497    0.41483    0.36922   1.00
C6       1.07469    0.40637    0.30715   1.00
C6       1.12629    0.40223    0.34723   1.00
C6       1.11383    0.39704    0.30909   1.00
H3       1.09547    0.42151    0.40008   1.00
H3       1.05663    0.40555    0.28124   1.00
H3       1.15555    0.39733    0.35795   1.00
H3       1.13172    0.38745    0.28495   1.00
