data_IRMOF10_SG202_interpen_Ligand1lp_label_a.

_audit_creation_method             'generated by an auxiliary program of Tobunporous'

_symmetry_space_group_name_H-M     'P 1'
_symmetry_Int_Tables_number        1
_symmetry_cell_setting             triclinic

_cell_length_a                    34.2800
_cell_length_b                    34.2800
_cell_length_c                    34.2800
_cell_angle_alpha                 90.0000
_cell_angle_beta                  90.0000
_cell_angle_gamma                 90.0000

loop_
_atom_site_label
_atom_site_fract_x
_atom_site_fract_y
_atom_site_fract_z
_atom_site_occupancy
O1       0.75000    0.75000    0.75000   1.00
Zn1      0.71720    0.78280    0.78280   1.00
Zn1      0.78280    0.71720    0.78280   1.00
Zn1      0.78280    0.78280    0.71720   1.00
Zn1      0.71720    0.71720    0.71720   1.00
O2       0.72650    0.77350    0.83820   1.00
O2       0.72650    0.83820    0.77350   1.00
O2       0.66180    0.77350    0.77350   1.00
O2       0.77350    0.72650    0.83820   1.00
O2       0.83820    0.72650    0.77350   1.00
O2       0.77350    0.66180    0.77350   1.00
O2       0.77350    0.83820    0.72650   1.00
O2       0.83820    0.77350    0.72650   1.00
O2       0.77350    0.77350    0.66180   1.00
O2       0.66180    0.72650    0.72650   1.00
O2       0.72650    0.66180    0.72650   1.00
O2       0.72650    0.72650    0.66180   1.00
C1       0.75000    0.75000    0.85520   1.00
C1       0.75000    0.85520    0.75000   1.00
C1       0.64480    0.75000    0.75000   1.00
C1       0.85520    0.75000    0.75000   1.00
C1       0.75000    0.64480    0.75000   1.00
C1       0.75000    0.75000    0.64480   1.00
O1       0.25000    0.25000    0.75000   1.00
Zn1      0.21720    0.28280    0.78280   1.00
Zn1      0.28280    0.21720    0.78280   1.00
Zn1      0.28280    0.28280    0.71720   1.00
Zn1      0.21720    0.21720    0.71720   1.00
O2       0.22650    0.27350    0.83820   1.00
O2       0.22650    0.33820    0.77350   1.00
O2       0.16180    0.27350    0.77350   1.00
O2       0.27350    0.22650    0.83820   1.00
O2       0.33820    0.22650    0.77350   1.00
O2       0.27350    0.16180    0.77350   1.00
O2       0.27350    0.33820    0.72650   1.00
O2       0.33820    0.27350    0.72650   1.00
O2       0.27350    0.27350    0.66180   1.00
O2       0.16180    0.22650    0.72650   1.00
O2       0.22650    0.16180    0.72650   1.00
O2       0.22650    0.22650    0.66180   1.00
C1       0.25000    0.25000    0.85520   1.00
C1       0.25000    0.35520    0.75000   1.00
C1       0.14480    0.25000    0.75000   1.00
C1       0.35520    0.25000    0.75000   1.00
C1       0.25000    0.14480    0.75000   1.00
C1       0.25000    0.25000    0.64480   1.00
O1       0.25000    0.75000    0.25000   1.00
Zn1      0.21720    0.78280    0.28280   1.00
Zn1      0.28280    0.71720    0.28280   1.00
Zn1      0.28280    0.78280    0.21720   1.00
Zn1      0.21720    0.71720    0.21720   1.00
O2       0.22650    0.77350    0.33820   1.00
O2       0.22650    0.83820    0.27350   1.00
O2       0.16180    0.77350    0.27350   1.00
O2       0.27350    0.72650    0.33820   1.00
O2       0.33820    0.72650    0.27350   1.00
O2       0.27350    0.66180    0.27350   1.00
O2       0.27350    0.83820    0.22650   1.00
O2       0.33820    0.77350    0.22650   1.00
O2       0.27350    0.77350    0.16180   1.00
O2       0.16180    0.72650    0.22650   1.00
O2       0.22650    0.66180    0.22650   1.00
O2       0.22650    0.72650    0.16180   1.00
C1       0.25000    0.75000    0.35520   1.00
C1       0.25000    0.85520    0.25000   1.00
C1       0.14480    0.75000    0.25000   1.00
C1       0.35520    0.75000    0.25000   1.00
C1       0.25000    0.64480    0.25000   1.00
C1       0.25000    0.75000    0.14480   1.00
O1       0.75000    0.25000    0.25000   1.00
Zn1      0.71720    0.28280    0.28280   1.00
Zn1      0.78280    0.21720    0.28280   1.00
Zn1      0.78280    0.28280    0.21720   1.00
Zn1      0.71720    0.21720    0.21720   1.00
O2       0.72650    0.27350    0.33820   1.00
O2       0.72650    0.33820    0.27350   1.00
O2       0.66180    0.27350    0.27350   1.00
O2       0.77350    0.22650    0.33820   1.00
O2       0.83820    0.22650    0.27350   1.00
O2       0.77350    0.16180    0.27350   1.00
O2       0.77350    0.33820    0.22650   1.00
O2       0.83820    0.27350    0.22650   1.00
O2       0.77350    0.27350    0.16180   1.00
O2       0.66180    0.22650    0.22650   1.00
O2       0.72650    0.16180    0.22650   1.00
O2       0.72650    0.22650    0.16180   1.00
C1       0.75000    0.25000    0.35520   1.00
C1       0.75000    0.35520    0.25000   1.00
C1       0.64480    0.25000    0.25000   1.00
C1       0.85520    0.25000    0.25000   1.00
C1       0.75000    0.14480    0.25000   1.00
C1       0.75000    0.25000    0.14480   1.00
O1       0.25000    0.25000    0.25000   1.00
Zn1      0.28280    0.21720    0.21720   1.00
Zn1      0.21720    0.28280    0.21720   1.00
Zn1      0.21720    0.21720    0.28280   1.00
Zn1      0.28280    0.28280    0.28280   1.00
O2       0.27350    0.22650    0.16180   1.00
O2       0.27350    0.16180    0.22650   1.00
O2       0.33820    0.22650    0.22650   1.00
O2       0.22650    0.27350    0.16180   1.00
O2       0.16180    0.27350    0.22650   1.00
O2       0.22650    0.33820    0.22650   1.00
O2       0.22650    0.16180    0.27350   1.00
O2       0.16180    0.22650    0.27350   1.00
O2       0.22650    0.22650    0.33820   1.00
O2       0.33820    0.27350    0.27350   1.00
O2       0.27350    0.33820    0.27350   1.00
O2       0.27350    0.27350    0.33820   1.00
C1       0.25000    0.25000    0.14480   1.00
C1       0.25000    0.14480    0.25000   1.00
C1       0.35520    0.25000    0.25000   1.00
C1       0.14480    0.25000    0.25000   1.00
C1       0.25000    0.35520    0.25000   1.00
C1       0.25000    0.25000    0.35520   1.00
O1       0.75000    0.75000    0.25000   1.00
Zn1      0.78280    0.71720    0.21720   1.00
Zn1      0.71720    0.78280    0.21720   1.00
Zn1      0.71720    0.71720    0.28280   1.00
Zn1      0.78280    0.78280    0.28280   1.00
O2       0.77350    0.72650    0.16180   1.00
O2       0.77350    0.66180    0.22650   1.00
O2       0.83820    0.72650    0.22650   1.00
O2       0.72650    0.77350    0.16180   1.00
O2       0.66180    0.77350    0.22650   1.00
O2       0.72650    0.83820    0.22650   1.00
O2       0.72650    0.66180    0.27350   1.00
O2       0.66180    0.72650    0.27350   1.00
O2       0.72650    0.72650    0.33820   1.00
O2       0.83820    0.77350    0.27350   1.00
O2       0.77350    0.83820    0.27350   1.00
O2       0.77350    0.77350    0.33820   1.00
C1       0.75000    0.75000    0.14480   1.00
C1       0.75000    0.64480    0.25000   1.00
C1       0.85520    0.75000    0.25000   1.00
C1       0.64480    0.75000    0.25000   1.00
C1       0.75000    0.85520    0.25000   1.00
C1       0.75000    0.75000    0.35520   1.00
O1       0.75000    0.25000    0.75000   1.00
Zn1      0.78280    0.21720    0.71720   1.00
Zn1      0.71720    0.28280    0.71720   1.00
Zn1      0.71720    0.21720    0.78280   1.00
Zn1      0.78280    0.28280    0.78280   1.00
O2       0.77350    0.22650    0.66180   1.00
O2       0.77350    0.16180    0.72650   1.00
O2       0.83820    0.22650    0.72650   1.00
O2       0.72650    0.27350    0.66180   1.00
O2       0.66180    0.27350    0.72650   1.00
O2       0.72650    0.33820    0.72650   1.00
O2       0.72650    0.16180    0.77350   1.00
O2       0.66180    0.22650    0.77350   1.00
O2       0.72650    0.22650    0.83820   1.00
O2       0.83820    0.27350    0.77350   1.00
O2       0.77350    0.33820    0.77350   1.00
O2       0.77350    0.27350    0.83820   1.00
C1       0.75000    0.25000    0.64480   1.00
C1       0.75000    0.14480    0.75000   1.00
C1       0.85520    0.25000    0.75000   1.00
C1       0.64480    0.25000    0.75000   1.00
C1       0.75000    0.35520    0.75000   1.00
C1       0.75000    0.25000    0.85520   1.00
O1       0.25000    0.75000    0.75000   1.00
Zn1      0.28280    0.71720    0.71720   1.00
Zn1      0.21720    0.78280    0.71720   1.00
Zn1      0.21720    0.71720    0.78280   1.00
Zn1      0.28280    0.78280    0.78280   1.00
O2       0.27350    0.72650    0.66180   1.00
O2       0.27350    0.66180    0.72650   1.00
O2       0.33820    0.72650    0.72650   1.00
O2       0.22650    0.77350    0.66180   1.00
O2       0.16180    0.77350    0.72650   1.00
O2       0.22650    0.83820    0.72650   1.00
O2       0.22650    0.66180    0.77350   1.00
O2       0.16180    0.72650    0.77350   1.00
O2       0.22650    0.72650    0.83820   1.00
O2       0.33820    0.77350    0.77350   1.00
O2       0.27350    0.83820    0.77350   1.00
O2       0.27350    0.77350    0.83820   1.00
C1       0.25000    0.75000    0.64480   1.00
C1       0.25000    0.64480    0.75000   1.00
C1       0.35520    0.75000    0.75000   1.00
C1       0.14480    0.75000    0.75000   1.00
C1       0.25000    0.85520    0.75000   1.00
C1       0.25000    0.75000    0.85520   1.00
O1       1.00000    1.00000    1.00000   1.00
Zn1      0.96720    1.03280    1.03280   1.00
Zn1      1.03280    0.96720    1.03280   1.00
Zn1      1.03280    1.03280    0.96720   1.00
Zn1      0.96720    0.96720    0.96720   1.00
O2       0.97650    1.02350    1.08820   1.00
O2       0.97650    1.08820    1.02350   1.00
O2       0.91180    1.02350    1.02350   1.00
O2       1.02350    0.97650    1.08820   1.00
O2       1.08820    0.97650    1.02350   1.00
O2       1.02350    0.91180    1.02350   1.00
O2       1.02350    1.08820    0.97650   1.00
O2       1.08820    1.02350    0.97650   1.00
O2       1.02350    1.02350    0.91180   1.00
O2       0.91180    0.97650    0.97650   1.00
O2       0.97650    0.91180    0.97650   1.00
O2       0.97650    0.97650    0.91180   1.00
C1       1.00000    1.00000    1.10520   1.00
C1       1.00000    1.10520    1.00000   1.00
C1       0.89480    1.00000    1.00000   1.00
C1       1.10520    1.00000    1.00000   1.00
C1       1.00000    0.89480    1.00000   1.00
C1       1.00000    1.00000    0.89480   1.00
O1       0.50000    0.50000    1.00000   1.00
Zn1      0.46720    0.53280    1.03280   1.00
Zn1      0.53280    0.46720    1.03280   1.00
Zn1      0.53280    0.53280    0.96720   1.00
Zn1      0.46720    0.46720    0.96720   1.00
O2       0.47650    0.52350    1.08820   1.00
O2       0.47650    0.58820    1.02350   1.00
O2       0.41180    0.52350    1.02350   1.00
O2       0.52350    0.47650    1.08820   1.00
O2       0.58820    0.47650    1.02350   1.00
O2       0.52350    0.41180    1.02350   1.00
O2       0.52350    0.58820    0.97650   1.00
O2       0.58820    0.52350    0.97650   1.00
O2       0.52350    0.52350    0.91180   1.00
O2       0.41180    0.47650    0.97650   1.00
O2       0.47650    0.41180    0.97650   1.00
O2       0.47650    0.47650    0.91180   1.00
C1       0.50000    0.50000    1.10520   1.00
C1       0.50000    0.60520    1.00000   1.00
C1       0.39480    0.50000    1.00000   1.00
C1       0.60520    0.50000    1.00000   1.00
C1       0.50000    0.39480    1.00000   1.00
C1       0.50000    0.50000    0.89480   1.00
O1       0.50000    1.00000    0.50000   1.00
Zn1      0.46720    1.03280    0.53280   1.00
Zn1      0.53280    0.96720    0.53280   1.00
Zn1      0.53280    1.03280    0.46720   1.00
Zn1      0.46720    0.96720    0.46720   1.00
O2       0.47650    1.02350    0.58820   1.00
O2       0.47650    1.08820    0.52350   1.00
O2       0.41180    1.02350    0.52350   1.00
O2       0.52350    0.97650    0.58820   1.00
O2       0.58820    0.97650    0.52350   1.00
O2       0.52350    0.91180    0.52350   1.00
O2       0.52350    1.08820    0.47650   1.00
O2       0.58820    1.02350    0.47650   1.00
O2       0.52350    1.02350    0.41180   1.00
O2       0.41180    0.97650    0.47650   1.00
O2       0.47650    0.91180    0.47650   1.00
O2       0.47650    0.97650    0.41180   1.00
C1       0.50000    1.00000    0.60520   1.00
C1       0.50000    1.10520    0.50000   1.00
C1       0.39480    1.00000    0.50000   1.00
C1       0.60520    1.00000    0.50000   1.00
C1       0.50000    0.89480    0.50000   1.00
C1       0.50000    1.00000    0.39480   1.00
O1       1.00000    0.50000    0.50000   1.00
Zn1      0.96720    0.53280    0.53280   1.00
Zn1      1.03280    0.46720    0.53280   1.00
Zn1      1.03280    0.53280    0.46720   1.00
Zn1      0.96720    0.46720    0.46720   1.00
O2       0.97650    0.52350    0.58820   1.00
O2       0.97650    0.58820    0.52350   1.00
O2       0.91180    0.52350    0.52350   1.00
O2       1.02350    0.47650    0.58820   1.00
O2       1.08820    0.47650    0.52350   1.00
O2       1.02350    0.41180    0.52350   1.00
O2       1.02350    0.58820    0.47650   1.00
O2       1.08820    0.52350    0.47650   1.00
O2       1.02350    0.52350    0.41180   1.00
O2       0.91180    0.47650    0.47650   1.00
O2       0.97650    0.41180    0.47650   1.00
O2       0.97650    0.47650    0.41180   1.00
C1       1.00000    0.50000    0.60520   1.00
C1       1.00000    0.60520    0.50000   1.00
C1       0.89480    0.50000    0.50000   1.00
C1       1.10520    0.50000    0.50000   1.00
C1       1.00000    0.39480    0.50000   1.00
C1       1.00000    0.50000    0.39480   1.00
O1       0.50000    0.50000    0.50000   1.00
Zn1      0.53280    0.46720    0.46720   1.00
Zn1      0.46720    0.53280    0.46720   1.00
Zn1      0.46720    0.46720    0.53280   1.00
Zn1      0.53280    0.53280    0.53280   1.00
O2       0.52350    0.47650    0.41180   1.00
O2       0.52350    0.41180    0.47650   1.00
O2       0.58820    0.47650    0.47650   1.00
O2       0.47650    0.52350    0.41180   1.00
O2       0.41180    0.52350    0.47650   1.00
O2       0.47650    0.58820    0.47650   1.00
O2       0.47650    0.41180    0.52350   1.00
O2       0.41180    0.47650    0.52350   1.00
O2       0.47650    0.47650    0.58820   1.00
O2       0.58820    0.52350    0.52350   1.00
O2       0.52350    0.58820    0.52350   1.00
O2       0.52350    0.52350    0.58820   1.00
C1       0.50000    0.50000    0.39480   1.00
C1       0.50000    0.39480    0.50000   1.00
C1       0.60520    0.50000    0.50000   1.00
C1       0.39480    0.50000    0.50000   1.00
C1       0.50000    0.60520    0.50000   1.00
C1       0.50000    0.50000    0.60520   1.00
O1       1.00000    1.00000    0.50000   1.00
Zn1      1.03280    0.96720    0.46720   1.00
Zn1      0.96720    1.03280    0.46720   1.00
Zn1      0.96720    0.96720    0.53280   1.00
Zn1      1.03280    1.03280    0.53280   1.00
O2       1.02350    0.97650    0.41180   1.00
O2       1.02350    0.91180    0.47650   1.00
O2       1.08820    0.97650    0.47650   1.00
O2       0.97650    1.02350    0.41180   1.00
O2       0.91180    1.02350    0.47650   1.00
O2       0.97650    1.08820    0.47650   1.00
O2       0.97650    0.91180    0.52350   1.00
O2       0.91180    0.97650    0.52350   1.00
O2       0.97650    0.97650    0.58820   1.00
O2       1.08820    1.02350    0.52350   1.00
O2       1.02350    1.08820    0.52350   1.00
O2       1.02350    1.02350    0.58820   1.00
C1       1.00000    1.00000    0.39480   1.00
C1       1.00000    0.89480    0.50000   1.00
C1       1.10520    1.00000    0.50000   1.00
C1       0.89480    1.00000    0.50000   1.00
C1       1.00000    1.10520    0.50000   1.00
C1       1.00000    1.00000    0.60520   1.00
O1       1.00000    0.50000    1.00000   1.00
Zn1      1.03280    0.46720    0.96720   1.00
Zn1      0.96720    0.53280    0.96720   1.00
Zn1      0.96720    0.46720    1.03280   1.00
Zn1      1.03280    0.53280    1.03280   1.00
O2       1.02350    0.47650    0.91180   1.00
O2       1.02350    0.41180    0.97650   1.00
O2       1.08820    0.47650    0.97650   1.00
O2       0.97650    0.52350    0.91180   1.00
O2       0.91180    0.52350    0.97650   1.00
O2       0.97650    0.58820    0.97650   1.00
O2       0.97650    0.41180    1.02350   1.00
O2       0.91180    0.47650    1.02350   1.00
O2       0.97650    0.47650    1.08820   1.00
O2       1.08820    0.52350    1.02350   1.00
O2       1.02350    0.58820    1.02350   1.00
O2       1.02350    0.52350    1.08820   1.00
C1       1.00000    0.50000    0.89480   1.00
C1       1.00000    0.39480    1.00000   1.00
C1       1.10520    0.50000    1.00000   1.00
C1       0.89480    0.50000    1.00000   1.00
C1       1.00000    0.60520    1.00000   1.00
C1       1.00000    0.50000    1.10520   1.00
O1       0.50000    1.00000    1.00000   1.00
Zn1      0.53280    0.96720    0.96720   1.00
Zn1      0.46720    1.03280    0.96720   1.00
Zn1      0.46720    0.96720    1.03280   1.00
Zn1      0.53280    1.03280    1.03280   1.00
O2       0.52350    0.97650    0.91180   1.00
O2       0.52350    0.91180    0.97650   1.00
O2       0.58820    0.97650    0.97650   1.00
O2       0.47650    1.02350    0.91180   1.00
O2       0.41180    1.02350    0.97650   1.00
O2       0.47650    1.08820    0.97650   1.00
O2       0.47650    0.91180    1.02350   1.00
O2       0.41180    0.97650    1.02350   1.00
O2       0.47650    0.97650    1.08820   1.00
O2       0.58820    1.02350    1.02350   1.00
O2       0.52350    1.08820    1.02350   1.00
O2       0.52350    1.02350    1.08820   1.00
C1       0.50000    1.00000    0.89480   1.00
C1       0.50000    0.89480    1.00000   1.00
C1       0.60520    1.00000    1.00000   1.00
C1       0.39480    1.00000    1.00000   1.00
C1       0.50000    1.10520    1.00000   1.00
C1       0.50000    1.00000    1.10520   1.00
C5       0.67260    0.85070    1.13227   1.00
H2       0.65734    0.82654    1.14755   1.00
H2       0.65124    0.86261    1.11099   1.00
C5       0.68437    0.88241    1.16219   1.00
H2       0.65921    0.90185    1.16890   1.00
H2       0.70876    0.90033    1.15040   1.00
O_3      0.79790    0.80207    0.98000   1.00
C4       0.74981    0.74960    1.02100   1.00
C3c      0.72368    0.77277    1.04243   1.00
H1       0.70292    0.79103    1.02725   1.00
C3d      0.77625    0.72559    1.04135   1.00
C3       0.72422    0.77323    1.08354   1.00
O2       0.69476    0.79288    1.10248   1.00
C3       0.77737    0.72654    1.08227   1.00
H1       0.79908    0.70868    1.09657   1.00
C2       0.75143    0.75013    1.10439   1.00
C5       0.83725    0.78992    0.97879   1.00
H2       0.84868    0.78825    0.94838   1.00
H2       0.84093    0.76068    0.99266   1.00
C5       0.86121    0.81973    1.00122   1.00
H2       0.84910    0.82220    1.03129   1.00
H2       0.85762    0.84872    0.98691   1.00
C5       0.90437    0.80798    1.00254   1.00
H2       0.91658    0.80518    0.97260   1.00
H2       0.90813    0.77968    1.01803   1.00
H2       0.92155    0.83054    1.01830   1.00
C5       0.78925    0.66777    1.01105   1.00
C5       0.70670    0.83151    1.11070   1.00
H2       0.76402    0.67089    0.99088   1.00
H2       0.77973    0.65075    1.03712   1.00
H2       0.71294    0.84745    1.08300   1.00
H2       0.73375    0.83262    1.12895   1.00
H2       0.69351    0.86911    1.19055   1.00
H2       0.78749    0.61875    0.94250   1.00
H2       0.78783    0.59092    0.98766   1.00
C2       0.75256    0.75024    0.89605   1.00
C3       0.72669    0.72511    0.91597   1.00
O2       0.70948    0.69422    0.89674   1.00
C3       0.77577    0.77618    0.91826   1.00
H1       0.79512    0.79648    0.90385   1.00
C3a      0.72533    0.72571    0.95713   1.00
H1       0.70702    0.70476    0.97202   1.00
C3b      0.77525    0.77583    0.95922   1.00
C4       0.74997    0.75042    0.97900   1.00
O_3      0.80452    0.70450    1.02167   1.00
C5       0.67048    0.70332    0.88720   1.00
H2       0.65299    0.70986    0.91391   1.00
C5       0.65334    0.66755    0.86666   1.00
H2       0.66905    0.72898    0.86726   1.00
H2       0.64512    0.64567    0.88923   1.00
H2       0.67711    0.65415    0.84899   1.00
C5       0.61796    0.67750    0.84069   1.00
H2       0.59585    0.69359    0.85811   1.00
H2       0.60434    0.65045    0.82891   1.00
H2       0.62678    0.69550    0.81494   1.00
C5       0.82148    0.64541    0.99020   1.00
H2       0.84369    0.63646    1.01218   1.00
H2       0.83625    0.66572    0.96955   1.00
C5       0.80560    0.60971    0.96803   1.00
H2       0.83020    0.59191    0.95666   1.00
C5       0.85070    1.13227    0.67260   1.00
H2       0.82654    1.14755    0.65734   1.00
H2       0.86261    1.11099    0.65124   1.00
C5       0.88241    1.16219    0.68437   1.00
H2       0.90185    1.16890    0.65921   1.00
H2       0.90033    1.15040    0.70876   1.00
O_3      0.80207    0.98000    0.79790   1.00
C4       0.74960    1.02100    0.74981   1.00
C3c      0.77277    1.04243    0.72368   1.00
H1       0.79103    1.02725    0.70292   1.00
C3d      0.72559    1.04135    0.77625   1.00
C3       0.77323    1.08354    0.72422   1.00
O2       0.79288    1.10248    0.69476   1.00
C3       0.72654    1.08227    0.77737   1.00
H1       0.70868    1.09657    0.79908   1.00
C2       0.75013    1.10439    0.75143   1.00
C5       0.78992    0.97879    0.83725   1.00
H2       0.78825    0.94838    0.84868   1.00
H2       0.76068    0.99266    0.84093   1.00
C5       0.81973    1.00122    0.86121   1.00
H2       0.82220    1.03129    0.84910   1.00
H2       0.84872    0.98691    0.85762   1.00
C5       0.80798    1.00254    0.90437   1.00
H2       0.80518    0.97260    0.91658   1.00
H2       0.77968    1.01803    0.90813   1.00
H2       0.83054    1.01830    0.92155   1.00
C5       0.66777    1.01105    0.78925   1.00
C5       0.83151    1.11070    0.70670   1.00
H2       0.67089    0.99088    0.76402   1.00
H2       0.65075    1.03712    0.77973   1.00
H2       0.84745    1.08300    0.71294   1.00
H2       0.83262    1.12895    0.73375   1.00
H2       0.86911    1.19055    0.69351   1.00
H2       0.61875    0.94250    0.78749   1.00
H2       0.59092    0.98766    0.78783   1.00
C2       0.75024    0.89605    0.75256   1.00
C3       0.72511    0.91597    0.72669   1.00
O2       0.69422    0.89674    0.70948   1.00
C3       0.77618    0.91826    0.77577   1.00
H1       0.79648    0.90385    0.79512   1.00
C3a      0.72571    0.95713    0.72533   1.00
H1       0.70476    0.97202    0.70702   1.00
C3b      0.77583    0.95922    0.77525   1.00
C4       0.75042    0.97900    0.74997   1.00
O_3      0.70450    1.02167    0.80452   1.00
C5       0.70332    0.88720    0.67048   1.00
H2       0.70986    0.91391    0.65299   1.00
C5       0.66755    0.86666    0.65334   1.00
H2       0.72898    0.86726    0.66905   1.00
H2       0.64567    0.88923    0.64512   1.00
H2       0.65415    0.84899    0.67711   1.00
C5       0.67750    0.84069    0.61796   1.00
H2       0.69359    0.85811    0.59585   1.00
H2       0.65045    0.82891    0.60434   1.00
H2       0.69550    0.81494    0.62678   1.00
C5       0.64541    0.99020    0.82148   1.00
H2       0.63646    1.01218    0.84369   1.00
H2       0.66572    0.96955    0.83625   1.00
C5       0.60971    0.96803    0.80560   1.00
H2       0.59191    0.95666    0.83020   1.00
C5       0.36773    0.67260    0.64930   1.00
H2       0.35245    0.65734    0.67346   1.00
H2       0.38901    0.65124    0.63739   1.00
C5       0.33781    0.68437    0.61759   1.00
H2       0.33110    0.65921    0.59815   1.00
H2       0.34960    0.70876    0.59967   1.00
O_3      0.52000    0.79790    0.69793   1.00
C4       0.47900    0.74981    0.75040   1.00
C3c      0.45757    0.72368    0.72723   1.00
H1       0.47275    0.70292    0.70897   1.00
C3d      0.45865    0.77625    0.77441   1.00
C3       0.41646    0.72422    0.72677   1.00
O2       0.39752    0.69476    0.70712   1.00
C3       0.41773    0.77737    0.77346   1.00
H1       0.40343    0.79908    0.79132   1.00
C2       0.39561    0.75143    0.74987   1.00
C5       0.52121    0.83725    0.71008   1.00
H2       0.55162    0.84868    0.71175   1.00
H2       0.50734    0.84093    0.73932   1.00
C5       0.49878    0.86121    0.68027   1.00
H2       0.46871    0.84910    0.67780   1.00
H2       0.51309    0.85762    0.65128   1.00
C5       0.49746    0.90437    0.69202   1.00
H2       0.52740    0.91658    0.69482   1.00
H2       0.48197    0.90813    0.72032   1.00
H2       0.48170    0.92155    0.66946   1.00
C5       0.48895    0.78925    0.83223   1.00
C5       0.38930    0.70670    0.66849   1.00
H2       0.50912    0.76402    0.82911   1.00
H2       0.46288    0.77973    0.84925   1.00
H2       0.41700    0.71294    0.65255   1.00
H2       0.37105    0.73375    0.66738   1.00
H2       0.30945    0.69351    0.63089   1.00
H2       0.55750    0.78749    0.88125   1.00
H2       0.51234    0.78783    0.90908   1.00
C2       0.60395    0.75256    0.74976   1.00
C3       0.58403    0.72669    0.77489   1.00
O2       0.60326    0.70948    0.80578   1.00
C3       0.58174    0.77577    0.72382   1.00
H1       0.59615    0.79512    0.70352   1.00
C3a      0.54287    0.72533    0.77429   1.00
H1       0.52798    0.70702    0.79524   1.00
C3b      0.54078    0.77525    0.72417   1.00
C4       0.52100    0.74997    0.74958   1.00
O_3      0.47833    0.80452    0.79550   1.00
C5       0.61280    0.67048    0.79668   1.00
H2       0.58609    0.65299    0.79014   1.00
C5       0.63334    0.65334    0.83245   1.00
H2       0.63274    0.66905    0.77102   1.00
H2       0.61077    0.64512    0.85433   1.00
H2       0.65101    0.67711    0.84585   1.00
C5       0.65931    0.61796    0.82250   1.00
H2       0.64189    0.59585    0.80641   1.00
H2       0.67109    0.60434    0.84955   1.00
H2       0.68506    0.62678    0.80450   1.00
C5       0.50980    0.82148    0.85459   1.00
H2       0.48782    0.84369    0.86354   1.00
H2       0.53045    0.83625    0.83428   1.00
C5       0.53197    0.80560    0.89029   1.00
H2       0.54334    0.83020    0.90809   1.00
C5       1.13227    0.67260    0.85070   1.00
H2       1.14755    0.65734    0.82654   1.00
H2       1.11099    0.65124    0.86261   1.00
C5       1.16219    0.68437    0.88241   1.00
H2       1.16890    0.65921    0.90185   1.00
H2       1.15040    0.70876    0.90033   1.00
O_3      0.98000    0.79790    0.80207   1.00
C4       1.02100    0.74981    0.74960   1.00
C3c      1.04243    0.72368    0.77277   1.00
H1       1.02725    0.70292    0.79103   1.00
C3d      1.04135    0.77625    0.72559   1.00
C3       1.08354    0.72422    0.77323   1.00
O2       1.10248    0.69476    0.79288   1.00
C3       1.08227    0.77737    0.72654   1.00
H1       1.09657    0.79908    0.70868   1.00
C2       1.10439    0.75143    0.75013   1.00
C5       0.97879    0.83725    0.78992   1.00
H2       0.94838    0.84868    0.78825   1.00
H2       0.99266    0.84093    0.76068   1.00
C5       1.00122    0.86121    0.81973   1.00
H2       1.03129    0.84910    0.82220   1.00
H2       0.98691    0.85762    0.84872   1.00
C5       1.00254    0.90437    0.80798   1.00
H2       0.97260    0.91658    0.80518   1.00
H2       1.01803    0.90813    0.77968   1.00
H2       1.01830    0.92155    0.83054   1.00
C5       1.01105    0.78925    0.66777   1.00
C5       1.11070    0.70670    0.83151   1.00
H2       0.99088    0.76402    0.67089   1.00
H2       1.03712    0.77973    0.65075   1.00
H2       1.08300    0.71294    0.84745   1.00
H2       1.12895    0.73375    0.83262   1.00
H2       1.19055    0.69351    0.86911   1.00
H2       0.94250    0.78749    0.61875   1.00
H2       0.98766    0.78783    0.59092   1.00
C2       0.89605    0.75256    0.75024   1.00
C3       0.91597    0.72669    0.72511   1.00
O2       0.89674    0.70948    0.69422   1.00
C3       0.91826    0.77577    0.77618   1.00
H1       0.90385    0.79512    0.79648   1.00
C3a      0.95713    0.72533    0.72571   1.00
H1       0.97202    0.70702    0.70476   1.00
C3b      0.95922    0.77525    0.77583   1.00
C4       0.97900    0.74997    0.75042   1.00
O_3      1.02167    0.80452    0.70450   1.00
C5       0.88720    0.67048    0.70332   1.00
H2       0.91391    0.65299    0.70986   1.00
C5       0.86666    0.65334    0.66755   1.00
H2       0.86726    0.66905    0.72898   1.00
H2       0.88923    0.64512    0.64567   1.00
H2       0.84899    0.67711    0.65415   1.00
C5       0.84069    0.61796    0.67750   1.00
H2       0.85811    0.59585    0.69359   1.00
H2       0.82891    0.60434    0.65045   1.00
H2       0.81494    0.62678    0.69550   1.00
C5       0.99020    0.82148    0.64541   1.00
H2       1.01218    0.84369    0.63646   1.00
H2       0.96955    0.83625    0.66572   1.00
C5       0.96803    0.80560    0.60971   1.00
H2       0.95666    0.83020    0.59191   1.00
C5       0.64930    0.36773    0.67260   1.00
H2       0.67346    0.35245    0.65734   1.00
H2       0.63739    0.38901    0.65124   1.00
C5       0.61759    0.33781    0.68437   1.00
H2       0.59815    0.33110    0.65921   1.00
H2       0.59967    0.34960    0.70876   1.00
O_3      0.69793    0.52000    0.79790   1.00
C4       0.75040    0.47900    0.74981   1.00
C3c      0.72723    0.45757    0.72368   1.00
H1       0.70897    0.47275    0.70292   1.00
C3d      0.77441    0.45865    0.77625   1.00
C3       0.72677    0.41646    0.72422   1.00
O2       0.70712    0.39752    0.69476   1.00
C3       0.77346    0.41773    0.77737   1.00
H1       0.79132    0.40343    0.79908   1.00
C2       0.74987    0.39561    0.75143   1.00
C5       0.71008    0.52121    0.83725   1.00
H2       0.71175    0.55162    0.84868   1.00
H2       0.73932    0.50734    0.84093   1.00
C5       0.68027    0.49878    0.86121   1.00
H2       0.67780    0.46871    0.84910   1.00
H2       0.65128    0.51309    0.85762   1.00
C5       0.69202    0.49746    0.90437   1.00
H2       0.69482    0.52740    0.91658   1.00
H2       0.72032    0.48197    0.90813   1.00
H2       0.66946    0.48170    0.92155   1.00
C5       0.83223    0.48895    0.78925   1.00
C5       0.66849    0.38930    0.70670   1.00
H2       0.82911    0.50912    0.76402   1.00
H2       0.84925    0.46288    0.77973   1.00
H2       0.65255    0.41700    0.71294   1.00
H2       0.66738    0.37105    0.73375   1.00
H2       0.63089    0.30945    0.69351   1.00
H2       0.88125    0.55750    0.78749   1.00
H2       0.90908    0.51234    0.78783   1.00
C2       0.74976    0.60395    0.75256   1.00
C3       0.77489    0.58403    0.72669   1.00
O2       0.80578    0.60326    0.70948   1.00
C3       0.72382    0.58174    0.77577   1.00
H1       0.70352    0.59615    0.79512   1.00
C3a      0.77429    0.54287    0.72533   1.00
H1       0.79524    0.52798    0.70702   1.00
C3b      0.72417    0.54078    0.77525   1.00
C4       0.74958    0.52100    0.74997   1.00
O_3      0.79550    0.47833    0.80452   1.00
C5       0.79668    0.61280    0.67048   1.00
H2       0.79014    0.58609    0.65299   1.00
C5       0.83245    0.63334    0.65334   1.00
H2       0.77102    0.63274    0.66905   1.00
H2       0.85433    0.61077    0.64512   1.00
H2       0.84585    0.65101    0.67711   1.00
C5       0.82250    0.65931    0.61796   1.00
H2       0.80641    0.64189    0.59585   1.00
H2       0.84955    0.67109    0.60434   1.00
H2       0.80450    0.68506    0.62678   1.00
C5       0.85459    0.50980    0.82148   1.00
H2       0.86354    0.48782    0.84369   1.00
H2       0.83428    0.53045    0.83625   1.00
C5       0.89029    0.53197    0.80560   1.00
H2       0.90809    0.54334    0.83020   1.00
C5       0.67260    0.64930    0.36773   1.00
H2       0.65734    0.67346    0.35245   1.00
H2       0.65124    0.63739    0.38901   1.00
C5       0.68437    0.61759    0.33781   1.00
H2       0.65921    0.59815    0.33110   1.00
H2       0.70876    0.59967    0.34960   1.00
O_3      0.79790    0.69793    0.52000   1.00
C4       0.74981    0.75040    0.47900   1.00
C3c      0.72368    0.72723    0.45757   1.00
H1       0.70292    0.70897    0.47275   1.00
C3d      0.77625    0.77441    0.45865   1.00
C3       0.72422    0.72677    0.41646   1.00
O2       0.69476    0.70712    0.39752   1.00
C3       0.77737    0.77346    0.41773   1.00
H1       0.79908    0.79132    0.40343   1.00
C2       0.75143    0.74987    0.39561   1.00
C5       0.83725    0.71008    0.52121   1.00
H2       0.84868    0.71175    0.55162   1.00
H2       0.84093    0.73932    0.50734   1.00
C5       0.86121    0.68027    0.49878   1.00
H2       0.84910    0.67780    0.46871   1.00
H2       0.85762    0.65128    0.51309   1.00
C5       0.90437    0.69202    0.49746   1.00
H2       0.91658    0.69482    0.52740   1.00
H2       0.90813    0.72032    0.48197   1.00
H2       0.92155    0.66946    0.48170   1.00
C5       0.78925    0.83223    0.48895   1.00
C5       0.70670    0.66849    0.38930   1.00
H2       0.76402    0.82911    0.50912   1.00
H2       0.77973    0.84925    0.46288   1.00
H2       0.71294    0.65255    0.41700   1.00
H2       0.73375    0.66738    0.37105   1.00
H2       0.69351    0.63089    0.30945   1.00
H2       0.78749    0.88125    0.55750   1.00
H2       0.78783    0.90908    0.51234   1.00
C2       0.75256    0.74976    0.60395   1.00
C3       0.72669    0.77489    0.58403   1.00
O2       0.70948    0.80578    0.60326   1.00
C3       0.77577    0.72382    0.58174   1.00
H1       0.79512    0.70352    0.59615   1.00
C3a      0.72533    0.77429    0.54287   1.00
H1       0.70702    0.79524    0.52798   1.00
C3b      0.77525    0.72417    0.54078   1.00
C4       0.74997    0.74958    0.52100   1.00
O_3      0.80452    0.79550    0.47833   1.00
C5       0.67048    0.79668    0.61280   1.00
H2       0.65299    0.79014    0.58609   1.00
C5       0.65334    0.83245    0.63334   1.00
H2       0.66905    0.77102    0.63274   1.00
H2       0.64512    0.85433    0.61077   1.00
H2       0.67711    0.84585    0.65101   1.00
C5       0.61796    0.82250    0.65931   1.00
H2       0.59585    0.80641    0.64189   1.00
H2       0.60434    0.84955    0.67109   1.00
H2       0.62678    0.80450    0.68506   1.00
C5       0.82148    0.85459    0.50980   1.00
H2       0.84369    0.86354    0.48782   1.00
H2       0.83625    0.83428    0.53045   1.00
C5       0.80560    0.89029    0.53197   1.00
H2       0.83020    0.90809    0.54334   1.00
C5       0.17260    0.35070    1.13227   1.00
H2       0.15734    0.32654    1.14755   1.00
H2       0.15124    0.36261    1.11099   1.00
C5       0.18437    0.38241    1.16219   1.00
H2       0.15921    0.40185    1.16890   1.00
H2       0.20876    0.40033    1.15040   1.00
O_3      0.29790    0.30207    0.98000   1.00
C4       0.24981    0.24960    1.02100   1.00
C3c      0.22368    0.27277    1.04243   1.00
H1       0.20292    0.29103    1.02725   1.00
C3d      0.27625    0.22559    1.04135   1.00
C3       0.22422    0.27323    1.08354   1.00
O2       0.19476    0.29288    1.10248   1.00
C3       0.27737    0.22654    1.08227   1.00
H1       0.29908    0.20868    1.09657   1.00
C2       0.25143    0.25013    1.10439   1.00
C5       0.33725    0.28992    0.97879   1.00
H2       0.34868    0.28825    0.94838   1.00
H2       0.34093    0.26068    0.99266   1.00
C5       0.36121    0.31973    1.00122   1.00
H2       0.34910    0.32220    1.03129   1.00
H2       0.35762    0.34872    0.98691   1.00
C5       0.40437    0.30798    1.00254   1.00
H2       0.41658    0.30518    0.97260   1.00
H2       0.40813    0.27968    1.01803   1.00
H2       0.42155    0.33054    1.01830   1.00
C5       0.28925    0.16777    1.01105   1.00
C5       0.20670    0.33151    1.11070   1.00
H2       0.26402    0.17089    0.99088   1.00
H2       0.27973    0.15075    1.03712   1.00
H2       0.21294    0.34745    1.08300   1.00
H2       0.23375    0.33262    1.12895   1.00
H2       0.19351    0.36911    1.19055   1.00
H2       0.28749    0.11875    0.94250   1.00
H2       0.28783    0.09092    0.98766   1.00
C2       0.25256    0.25024    0.89605   1.00
C3       0.22669    0.22511    0.91597   1.00
O2       0.20948    0.19422    0.89674   1.00
C3       0.27577    0.27618    0.91826   1.00
H1       0.29512    0.29648    0.90385   1.00
C3a      0.22533    0.22571    0.95713   1.00
H1       0.20702    0.20476    0.97202   1.00
C3b      0.27525    0.27583    0.95922   1.00
C4       0.24997    0.25042    0.97900   1.00
O_3      0.30452    0.20450    1.02167   1.00
C5       0.17048    0.20332    0.88720   1.00
H2       0.15299    0.20986    0.91391   1.00
C5       0.15334    0.16755    0.86666   1.00
H2       0.16905    0.22898    0.86726   1.00
H2       0.14512    0.14567    0.88923   1.00
H2       0.17711    0.15415    0.84899   1.00
C5       0.11796    0.17750    0.84069   1.00
H2       0.09585    0.19359    0.85811   1.00
H2       0.10434    0.15045    0.82891   1.00
H2       0.12678    0.19550    0.81494   1.00
C5       0.32148    0.14541    0.99020   1.00
H2       0.34369    0.13646    1.01218   1.00
H2       0.33625    0.16572    0.96955   1.00
C5       0.30560    0.10971    0.96803   1.00
H2       0.33020    0.09191    0.95666   1.00
C5       0.35070    0.63227    0.67260   1.00
H2       0.32654    0.64755    0.65734   1.00
H2       0.36261    0.61099    0.65124   1.00
C5       0.38241    0.66219    0.68437   1.00
H2       0.40185    0.66890    0.65921   1.00
H2       0.40033    0.65040    0.70876   1.00
O_3      0.30207    0.48000    0.79790   1.00
C4       0.24960    0.52100    0.74981   1.00
C3c      0.27277    0.54243    0.72368   1.00
H1       0.29103    0.52725    0.70292   1.00
C3d      0.22559    0.54135    0.77625   1.00
C3       0.27323    0.58354    0.72422   1.00
O2       0.29288    0.60248    0.69476   1.00
C3       0.22654    0.58227    0.77737   1.00
H1       0.20868    0.59657    0.79908   1.00
C2       0.25013    0.60439    0.75143   1.00
C5       0.28992    0.47879    0.83725   1.00
H2       0.28825    0.44838    0.84868   1.00
H2       0.26068    0.49266    0.84093   1.00
C5       0.31973    0.50122    0.86121   1.00
H2       0.32220    0.53129    0.84910   1.00
H2       0.34872    0.48691    0.85762   1.00
C5       0.30798    0.50254    0.90437   1.00
H2       0.30518    0.47260    0.91658   1.00
H2       0.27968    0.51803    0.90813   1.00
H2       0.33054    0.51830    0.92155   1.00
C5       0.16777    0.51105    0.78925   1.00
C5       0.33151    0.61070    0.70670   1.00
H2       0.17089    0.49088    0.76402   1.00
H2       0.15075    0.53712    0.77973   1.00
H2       0.34745    0.58300    0.71294   1.00
H2       0.33262    0.62895    0.73375   1.00
H2       0.36911    0.69055    0.69351   1.00
H2       0.11875    0.44250    0.78749   1.00
H2       0.09092    0.48766    0.78783   1.00
C2       0.25024    0.39605    0.75256   1.00
C3       0.22511    0.41597    0.72669   1.00
O2       0.19422    0.39674    0.70948   1.00
C3       0.27618    0.41826    0.77577   1.00
H1       0.29648    0.40385    0.79512   1.00
C3a      0.22571    0.45713    0.72533   1.00
H1       0.20476    0.47202    0.70702   1.00
C3b      0.27583    0.45922    0.77525   1.00
C4       0.25042    0.47900    0.74997   1.00
O_3      0.20450    0.52167    0.80452   1.00
C5       0.20332    0.38720    0.67048   1.00
H2       0.20986    0.41391    0.65299   1.00
C5       0.16755    0.36666    0.65334   1.00
H2       0.22898    0.36726    0.66905   1.00
H2       0.14567    0.38923    0.64512   1.00
H2       0.15415    0.34899    0.67711   1.00
C5       0.17750    0.34069    0.61796   1.00
H2       0.19359    0.35811    0.59585   1.00
H2       0.15045    0.32891    0.60434   1.00
H2       0.19550    0.31494    0.62678   1.00
C5       0.14541    0.49020    0.82148   1.00
H2       0.13646    0.51218    0.84369   1.00
H2       0.16572    0.46955    0.83625   1.00
C5       0.10971    0.46803    0.80560   1.00
H2       0.09191    0.45666    0.83020   1.00
C5       -0.13227   0.17260    0.64930   1.00
H2       -0.14755   0.15734    0.67346   1.00
H2       -0.11099   0.15124    0.63739   1.00
C5       -0.16219   0.18437    0.61759   1.00
H2       -0.16890   0.15921    0.59815   1.00
H2       -0.15040   0.20876    0.59967   1.00
O_3      0.02000    0.29790    0.69793   1.00
C4       -0.02100   0.24981    0.75040   1.00
C3c      -0.04243   0.22368    0.72723   1.00
H1       -0.02725   0.20292    0.70897   1.00
C3d      -0.04135   0.27625    0.77441   1.00
C3       -0.08354   0.22422    0.72677   1.00
O2       -0.10248   0.19476    0.70712   1.00
C3       -0.08227   0.27737    0.77346   1.00
H1       -0.09657   0.29908    0.79132   1.00
C2       -0.10439   0.25143    0.74987   1.00
C5       0.02121    0.33725    0.71008   1.00
H2       0.05162    0.34868    0.71175   1.00
H2       0.00734    0.34093    0.73932   1.00
C5       -0.00122   0.36121    0.68027   1.00
H2       -0.03129   0.34910    0.67780   1.00
H2       0.01309    0.35762    0.65128   1.00
C5       -0.00254   0.40437    0.69202   1.00
H2       0.02740    0.41658    0.69482   1.00
H2       -0.01803   0.40813    0.72032   1.00
H2       -0.01830   0.42155    0.66946   1.00
C5       -0.01105   0.28925    0.83223   1.00
C5       -0.11070   0.20670    0.66849   1.00
H2       0.00912    0.26402    0.82911   1.00
H2       -0.03712   0.27973    0.84925   1.00
H2       -0.08300   0.21294    0.65255   1.00
H2       -0.12895   0.23375    0.66738   1.00
H2       -0.19055   0.19351    0.63089   1.00
H2       0.05750    0.28749    0.88125   1.00
H2       0.01234    0.28783    0.90908   1.00
C2       0.10395    0.25256    0.74976   1.00
C3       0.08403    0.22669    0.77489   1.00
O2       0.10326    0.20948    0.80578   1.00
C3       0.08174    0.27577    0.72382   1.00
H1       0.09615    0.29512    0.70352   1.00
C3a      0.04287    0.22533    0.77429   1.00
H1       0.02798    0.20702    0.79524   1.00
C3b      0.04078    0.27525    0.72417   1.00
C4       0.02100    0.24997    0.74958   1.00
O_3      -0.02167   0.30452    0.79550   1.00
C5       0.11280    0.17048    0.79668   1.00
H2       0.08609    0.15299    0.79014   1.00
C5       0.13334    0.15334    0.83245   1.00
H2       0.13274    0.16905    0.77102   1.00
H2       0.11077    0.14512    0.85433   1.00
H2       0.15101    0.17711    0.84585   1.00
C5       0.15931    0.11796    0.82250   1.00
H2       0.14189    0.09585    0.80641   1.00
H2       0.17109    0.10434    0.84955   1.00
H2       0.18506    0.12678    0.80450   1.00
C5       0.00980    0.32148    0.85459   1.00
H2       -0.01218   0.34369    0.86354   1.00
H2       0.03045    0.33625    0.83428   1.00
C5       0.03197    0.30560    0.89029   1.00
H2       0.04334    0.33020    0.90809   1.00
C5       0.63227    0.17260    0.85070   1.00
H2       0.64755    0.15734    0.82654   1.00
H2       0.61099    0.15124    0.86261   1.00
C5       0.66219    0.18437    0.88241   1.00
H2       0.66890    0.15921    0.90185   1.00
H2       0.65040    0.20876    0.90033   1.00
O_3      0.48000    0.29790    0.80207   1.00
C4       0.52100    0.24981    0.74960   1.00
C3c      0.54243    0.22368    0.77277   1.00
H1       0.52725    0.20292    0.79103   1.00
C3d      0.54135    0.27625    0.72559   1.00
C3       0.58354    0.22422    0.77323   1.00
O2       0.60248    0.19476    0.79288   1.00
C3       0.58227    0.27737    0.72654   1.00
H1       0.59657    0.29908    0.70868   1.00
C2       0.60439    0.25143    0.75013   1.00
C5       0.47879    0.33725    0.78992   1.00
H2       0.44838    0.34868    0.78825   1.00
H2       0.49266    0.34093    0.76068   1.00
C5       0.50122    0.36121    0.81973   1.00
H2       0.53129    0.34910    0.82220   1.00
H2       0.48691    0.35762    0.84872   1.00
C5       0.50254    0.40437    0.80798   1.00
H2       0.47260    0.41658    0.80518   1.00
H2       0.51803    0.40813    0.77968   1.00
H2       0.51830    0.42155    0.83054   1.00
C5       0.51105    0.28925    0.66777   1.00
C5       0.61070    0.20670    0.83151   1.00
H2       0.49088    0.26402    0.67089   1.00
H2       0.53712    0.27973    0.65075   1.00
H2       0.58300    0.21294    0.84745   1.00
H2       0.62895    0.23375    0.83262   1.00
H2       0.69055    0.19351    0.86911   1.00
H2       0.44250    0.28749    0.61875   1.00
H2       0.48766    0.28783    0.59092   1.00
C2       0.39605    0.25256    0.75024   1.00
C3       0.41597    0.22669    0.72511   1.00
O2       0.39674    0.20948    0.69422   1.00
C3       0.41826    0.27577    0.77618   1.00
H1       0.40385    0.29512    0.79648   1.00
C3a      0.45713    0.22533    0.72571   1.00
H1       0.47202    0.20702    0.70476   1.00
C3b      0.45922    0.27525    0.77583   1.00
C4       0.47900    0.24997    0.75042   1.00
O_3      0.52167    0.30452    0.70450   1.00
C5       0.38720    0.17048    0.70332   1.00
H2       0.41391    0.15299    0.70986   1.00
C5       0.36666    0.15334    0.66755   1.00
H2       0.36726    0.16905    0.72898   1.00
H2       0.38923    0.14512    0.64567   1.00
H2       0.34899    0.17711    0.65415   1.00
C5       0.34069    0.11796    0.67750   1.00
H2       0.35811    0.09585    0.69359   1.00
H2       0.32891    0.10434    0.65045   1.00
H2       0.31494    0.12678    0.69550   1.00
C5       0.49020    0.32148    0.64541   1.00
H2       0.51218    0.34369    0.63646   1.00
H2       0.46955    0.33625    0.66572   1.00
C5       0.46803    0.30560    0.60971   1.00
H2       0.45666    0.33020    0.59191   1.00
C5       0.14930    -0.13227   0.67260   1.00
H2       0.17346    -0.14755   0.65734   1.00
H2       0.13739    -0.11099   0.65124   1.00
C5       0.11759    -0.16219   0.68437   1.00
H2       0.09815    -0.16890   0.65921   1.00
H2       0.09967    -0.15040   0.70876   1.00
O_3      0.19793    0.02000    0.79790   1.00
C4       0.25040    -0.02100   0.74981   1.00
C3c      0.22723    -0.04243   0.72368   1.00
H1       0.20897    -0.02725   0.70292   1.00
C3d      0.27441    -0.04135   0.77625   1.00
C3       0.22677    -0.08354   0.72422   1.00
O2       0.20712    -0.10248   0.69476   1.00
C3       0.27346    -0.08227   0.77737   1.00
H1       0.29132    -0.09657   0.79908   1.00
C2       0.24987    -0.10439   0.75143   1.00
C5       0.21008    0.02121    0.83725   1.00
H2       0.21175    0.05162    0.84868   1.00
H2       0.23932    0.00734    0.84093   1.00
C5       0.18027    -0.00122   0.86121   1.00
H2       0.17780    -0.03129   0.84910   1.00
H2       0.15128    0.01309    0.85762   1.00
C5       0.19202    -0.00254   0.90437   1.00
H2       0.19482    0.02740    0.91658   1.00
H2       0.22032    -0.01803   0.90813   1.00
H2       0.16946    -0.01830   0.92155   1.00
C5       0.33223    -0.01105   0.78925   1.00
C5       0.16849    -0.11070   0.70670   1.00
H2       0.32911    0.00912    0.76402   1.00
H2       0.34925    -0.03712   0.77973   1.00
H2       0.15255    -0.08300   0.71294   1.00
H2       0.16738    -0.12895   0.73375   1.00
H2       0.13089    -0.19055   0.69351   1.00
H2       0.38125    0.05750    0.78749   1.00
H2       0.40908    0.01234    0.78783   1.00
C2       0.24976    0.10395    0.75256   1.00
C3       0.27489    0.08403    0.72669   1.00
O2       0.30578    0.10326    0.70948   1.00
C3       0.22382    0.08174    0.77577   1.00
H1       0.20352    0.09615    0.79512   1.00
C3a      0.27429    0.04287    0.72533   1.00
H1       0.29524    0.02798    0.70702   1.00
C3b      0.22417    0.04078    0.77525   1.00
C4       0.24958    0.02100    0.74997   1.00
O_3      0.29550    -0.02167   0.80452   1.00
C5       0.29668    0.11280    0.67048   1.00
H2       0.29014    0.08609    0.65299   1.00
C5       0.33245    0.13334    0.65334   1.00
H2       0.27102    0.13274    0.66905   1.00
H2       0.35433    0.11077    0.64512   1.00
H2       0.34585    0.15101    0.67711   1.00
C5       0.32250    0.15931    0.61796   1.00
H2       0.30641    0.14189    0.59585   1.00
H2       0.34955    0.17109    0.60434   1.00
H2       0.30450    0.18506    0.62678   1.00
C5       0.35459    0.00980    0.82148   1.00
H2       0.36354    -0.01218   0.84369   1.00
H2       0.33428    0.03045    0.83625   1.00
C5       0.39029    0.03197    0.80560   1.00
H2       0.40809    0.04334    0.83020   1.00
C5       0.17260    0.14930    0.36773   1.00
H2       0.15734    0.17346    0.35245   1.00
H2       0.15124    0.13739    0.38901   1.00
C5       0.18437    0.11759    0.33781   1.00
H2       0.15921    0.09815    0.33110   1.00
H2       0.20876    0.09967    0.34960   1.00
O_3      0.29790    0.19793    0.52000   1.00
C4       0.24981    0.25040    0.47900   1.00
C3c      0.22368    0.22723    0.45757   1.00
H1       0.20292    0.20897    0.47275   1.00
C3d      0.27625    0.27441    0.45865   1.00
C3       0.22422    0.22677    0.41646   1.00
O2       0.19476    0.20712    0.39752   1.00
C3       0.27737    0.27346    0.41773   1.00
H1       0.29908    0.29132    0.40343   1.00
C2       0.25143    0.24987    0.39561   1.00
C5       0.33725    0.21008    0.52121   1.00
H2       0.34868    0.21175    0.55162   1.00
H2       0.34093    0.23932    0.50734   1.00
C5       0.36121    0.18027    0.49878   1.00
H2       0.34910    0.17780    0.46871   1.00
H2       0.35762    0.15128    0.51309   1.00
C5       0.40437    0.19202    0.49746   1.00
H2       0.41658    0.19482    0.52740   1.00
H2       0.40813    0.22032    0.48197   1.00
H2       0.42155    0.16946    0.48170   1.00
C5       0.28925    0.33223    0.48895   1.00
C5       0.20670    0.16849    0.38930   1.00
H2       0.26402    0.32911    0.50912   1.00
H2       0.27973    0.34925    0.46288   1.00
H2       0.21294    0.15255    0.41700   1.00
H2       0.23375    0.16738    0.37105   1.00
H2       0.19351    0.13089    0.30945   1.00
H2       0.28749    0.38125    0.55750   1.00
H2       0.28783    0.40908    0.51234   1.00
C2       0.25256    0.24976    0.60395   1.00
C3       0.22669    0.27489    0.58403   1.00
O2       0.20948    0.30578    0.60326   1.00
C3       0.27577    0.22382    0.58174   1.00
H1       0.29512    0.20352    0.59615   1.00
C3a      0.22533    0.27429    0.54287   1.00
H1       0.20702    0.29524    0.52798   1.00
C3b      0.27525    0.22417    0.54078   1.00
C4       0.24997    0.24958    0.52100   1.00
O_3      0.30452    0.29550    0.47833   1.00
C5       0.17048    0.29668    0.61280   1.00
H2       0.15299    0.29014    0.58609   1.00
C5       0.15334    0.33245    0.63334   1.00
H2       0.16905    0.27102    0.63274   1.00
H2       0.14512    0.35433    0.61077   1.00
H2       0.17711    0.34585    0.65101   1.00
C5       0.11796    0.32250    0.65931   1.00
H2       0.09585    0.30641    0.64189   1.00
H2       0.10434    0.34955    0.67109   1.00
H2       0.12678    0.30450    0.68506   1.00
C5       0.32148    0.35459    0.50980   1.00
H2       0.34369    0.36354    0.48782   1.00
H2       0.33625    0.33428    0.53045   1.00
C5       0.30560    0.39029    0.53197   1.00
H2       0.33020    0.40809    0.54334   1.00
C5       0.17260    0.85070    0.63227   1.00
H2       0.15734    0.82654    0.64755   1.00
H2       0.15124    0.86261    0.61099   1.00
C5       0.18437    0.88241    0.66219   1.00
H2       0.15921    0.90185    0.66890   1.00
H2       0.20876    0.90033    0.65040   1.00
O_3      0.29790    0.80207    0.48000   1.00
C4       0.24981    0.74960    0.52100   1.00
C3c      0.22368    0.77277    0.54243   1.00
H1       0.20292    0.79103    0.52725   1.00
C3d      0.27625    0.72559    0.54135   1.00
C3       0.22422    0.77323    0.58354   1.00
O2       0.19476    0.79288    0.60248   1.00
C3       0.27737    0.72654    0.58227   1.00
H1       0.29908    0.70868    0.59657   1.00
C2       0.25143    0.75013    0.60439   1.00
C5       0.33725    0.78992    0.47879   1.00
H2       0.34868    0.78825    0.44838   1.00
H2       0.34093    0.76068    0.49266   1.00
C5       0.36121    0.81973    0.50122   1.00
H2       0.34910    0.82220    0.53129   1.00
H2       0.35762    0.84872    0.48691   1.00
C5       0.40437    0.80798    0.50254   1.00
H2       0.41658    0.80518    0.47260   1.00
H2       0.40813    0.77968    0.51803   1.00
H2       0.42155    0.83054    0.51830   1.00
C5       0.28925    0.66777    0.51105   1.00
C5       0.20670    0.83151    0.61070   1.00
H2       0.26402    0.67089    0.49088   1.00
H2       0.27973    0.65075    0.53712   1.00
H2       0.21294    0.84745    0.58300   1.00
H2       0.23375    0.83262    0.62895   1.00
H2       0.19351    0.86911    0.69055   1.00
H2       0.28749    0.61875    0.44250   1.00
H2       0.28783    0.59092    0.48766   1.00
C2       0.25256    0.75024    0.39605   1.00
C3       0.22669    0.72511    0.41597   1.00
O2       0.20948    0.69422    0.39674   1.00
C3       0.27577    0.77618    0.41826   1.00
H1       0.29512    0.79648    0.40385   1.00
C3a      0.22533    0.72571    0.45713   1.00
H1       0.20702    0.70476    0.47202   1.00
C3b      0.27525    0.77583    0.45922   1.00
C4       0.24997    0.75042    0.47900   1.00
O_3      0.30452    0.70450    0.52167   1.00
C5       0.17048    0.70332    0.38720   1.00
H2       0.15299    0.70986    0.41391   1.00
C5       0.15334    0.66755    0.36666   1.00
H2       0.16905    0.72898    0.36726   1.00
H2       0.14512    0.64567    0.38923   1.00
H2       0.17711    0.65415    0.34899   1.00
C5       0.11796    0.67750    0.34069   1.00
H2       0.09585    0.69359    0.35811   1.00
H2       0.10434    0.65045    0.32891   1.00
H2       0.12678    0.69550    0.31494   1.00
C5       0.32148    0.64541    0.49020   1.00
H2       0.34369    0.63646    0.51218   1.00
H2       0.33625    0.66572    0.46955   1.00
C5       0.30560    0.60971    0.46803   1.00
H2       0.33020    0.59191    0.45666   1.00
C5       0.35070    1.13227    0.17260   1.00
H2       0.32654    1.14755    0.15734   1.00
H2       0.36261    1.11099    0.15124   1.00
C5       0.38241    1.16219    0.18437   1.00
H2       0.40185    1.16890    0.15921   1.00
H2       0.40033    1.15040    0.20876   1.00
O_3      0.30207    0.98000    0.29790   1.00
C4       0.24960    1.02100    0.24981   1.00
C3c      0.27277    1.04243    0.22368   1.00
H1       0.29103    1.02725    0.20292   1.00
C3d      0.22559    1.04135    0.27625   1.00
C3       0.27323    1.08354    0.22422   1.00
O2       0.29288    1.10248    0.19476   1.00
C3       0.22654    1.08227    0.27737   1.00
H1       0.20868    1.09657    0.29908   1.00
C2       0.25013    1.10439    0.25143   1.00
C5       0.28992    0.97879    0.33725   1.00
H2       0.28825    0.94838    0.34868   1.00
H2       0.26068    0.99266    0.34093   1.00
C5       0.31973    1.00122    0.36121   1.00
H2       0.32220    1.03129    0.34910   1.00
H2       0.34872    0.98691    0.35762   1.00
C5       0.30798    1.00254    0.40437   1.00
H2       0.30518    0.97260    0.41658   1.00
H2       0.27968    1.01803    0.40813   1.00
H2       0.33054    1.01830    0.42155   1.00
C5       0.16777    1.01105    0.28925   1.00
C5       0.33151    1.11070    0.20670   1.00
H2       0.17089    0.99088    0.26402   1.00
H2       0.15075    1.03712    0.27973   1.00
H2       0.34745    1.08300    0.21294   1.00
H2       0.33262    1.12895    0.23375   1.00
H2       0.36911    1.19055    0.19351   1.00
H2       0.11875    0.94250    0.28749   1.00
H2       0.09092    0.98766    0.28783   1.00
C2       0.25024    0.89605    0.25256   1.00
C3       0.22511    0.91597    0.22669   1.00
O2       0.19422    0.89674    0.20948   1.00
C3       0.27618    0.91826    0.27577   1.00
H1       0.29648    0.90385    0.29512   1.00
C3a      0.22571    0.95713    0.22533   1.00
H1       0.20476    0.97202    0.20702   1.00
C3b      0.27583    0.95922    0.27525   1.00
C4       0.25042    0.97900    0.24997   1.00
O_3      0.20450    1.02167    0.30452   1.00
C5       0.20332    0.88720    0.17048   1.00
H2       0.20986    0.91391    0.15299   1.00
C5       0.16755    0.86666    0.15334   1.00
H2       0.22898    0.86726    0.16905   1.00
H2       0.14567    0.88923    0.14512   1.00
H2       0.15415    0.84899    0.17711   1.00
C5       0.17750    0.84069    0.11796   1.00
H2       0.19359    0.85811    0.09585   1.00
H2       0.15045    0.82891    0.10434   1.00
H2       0.19550    0.81494    0.12678   1.00
C5       0.14541    0.99020    0.32148   1.00
H2       0.13646    1.01218    0.34369   1.00
H2       0.16572    0.96955    0.33625   1.00
C5       0.10971    0.96803    0.30560   1.00
H2       0.09191    0.95666    0.33020   1.00
C5       -0.13227   0.67260    0.14930   1.00
H2       -0.14755   0.65734    0.17346   1.00
H2       -0.11099   0.65124    0.13739   1.00
C5       -0.16219   0.68437    0.11759   1.00
H2       -0.16890   0.65921    0.09815   1.00
H2       -0.15040   0.70876    0.09967   1.00
O_3      0.02000    0.79790    0.19793   1.00
C4       -0.02100   0.74981    0.25040   1.00
C3c      -0.04243   0.72368    0.22723   1.00
H1       -0.02725   0.70292    0.20897   1.00
C3d      -0.04135   0.77625    0.27441   1.00
C3       -0.08354   0.72422    0.22677   1.00
O2       -0.10248   0.69476    0.20712   1.00
C3       -0.08227   0.77737    0.27346   1.00
H1       -0.09657   0.79908    0.29132   1.00
C2       -0.10439   0.75143    0.24987   1.00
C5       0.02121    0.83725    0.21008   1.00
H2       0.05162    0.84868    0.21175   1.00
H2       0.00734    0.84093    0.23932   1.00
C5       -0.00122   0.86121    0.18027   1.00
H2       -0.03129   0.84910    0.17780   1.00
H2       0.01309    0.85762    0.15128   1.00
C5       -0.00254   0.90437    0.19202   1.00
H2       0.02740    0.91658    0.19482   1.00
H2       -0.01803   0.90813    0.22032   1.00
H2       -0.01830   0.92155    0.16946   1.00
C5       -0.01105   0.78925    0.33223   1.00
C5       -0.11070   0.70670    0.16849   1.00
H2       0.00912    0.76402    0.32911   1.00
H2       -0.03712   0.77973    0.34925   1.00
H2       -0.08300   0.71294    0.15255   1.00
H2       -0.12895   0.73375    0.16738   1.00
H2       -0.19055   0.69351    0.13089   1.00
H2       0.05750    0.78749    0.38125   1.00
H2       0.01234    0.78783    0.40908   1.00
C2       0.10395    0.75256    0.24976   1.00
C3       0.08403    0.72669    0.27489   1.00
O2       0.10326    0.70948    0.30578   1.00
C3       0.08174    0.77577    0.22382   1.00
H1       0.09615    0.79512    0.20352   1.00
C3a      0.04287    0.72533    0.27429   1.00
H1       0.02798    0.70702    0.29524   1.00
C3b      0.04078    0.77525    0.22417   1.00
C4       0.02100    0.74997    0.24958   1.00
O_3      -0.02167   0.80452    0.29550   1.00
C5       0.11280    0.67048    0.29668   1.00
H2       0.08609    0.65299    0.29014   1.00
C5       0.13334    0.65334    0.33245   1.00
H2       0.13274    0.66905    0.27102   1.00
H2       0.11077    0.64512    0.35433   1.00
H2       0.15101    0.67711    0.34585   1.00
C5       0.15931    0.61796    0.32250   1.00
H2       0.14189    0.59585    0.30641   1.00
H2       0.17109    0.60434    0.34955   1.00
H2       0.18506    0.62678    0.30450   1.00
C5       0.00980    0.82148    0.35459   1.00
H2       -0.01218   0.84369    0.36354   1.00
H2       0.03045    0.83625    0.33428   1.00
C5       0.03197    0.80560    0.39029   1.00
H2       0.04334    0.83020    0.40809   1.00
C5       0.63227    0.67260    0.35070   1.00
H2       0.64755    0.65734    0.32654   1.00
H2       0.61099    0.65124    0.36261   1.00
C5       0.66219    0.68437    0.38241   1.00
H2       0.66890    0.65921    0.40185   1.00
H2       0.65040    0.70876    0.40033   1.00
O_3      0.48000    0.79790    0.30207   1.00
C4       0.52100    0.74981    0.24960   1.00
C3c      0.54243    0.72368    0.27277   1.00
H1       0.52725    0.70292    0.29103   1.00
C3d      0.54135    0.77625    0.22559   1.00
C3       0.58354    0.72422    0.27323   1.00
O2       0.60248    0.69476    0.29288   1.00
C3       0.58227    0.77737    0.22654   1.00
H1       0.59657    0.79908    0.20868   1.00
C2       0.60439    0.75143    0.25013   1.00
C5       0.47879    0.83725    0.28992   1.00
H2       0.44838    0.84868    0.28825   1.00
H2       0.49266    0.84093    0.26068   1.00
C5       0.50122    0.86121    0.31973   1.00
H2       0.53129    0.84910    0.32220   1.00
H2       0.48691    0.85762    0.34872   1.00
C5       0.50254    0.90437    0.30798   1.00
H2       0.47260    0.91658    0.30518   1.00
H2       0.51803    0.90813    0.27968   1.00
H2       0.51830    0.92155    0.33054   1.00
C5       0.51105    0.78925    0.16777   1.00
C5       0.61070    0.70670    0.33151   1.00
H2       0.49088    0.76402    0.17089   1.00
H2       0.53712    0.77973    0.15075   1.00
H2       0.58300    0.71294    0.34745   1.00
H2       0.62895    0.73375    0.33262   1.00
H2       0.69055    0.69351    0.36911   1.00
H2       0.44250    0.78749    0.11875   1.00
H2       0.48766    0.78783    0.09092   1.00
C2       0.39605    0.75256    0.25024   1.00
C3       0.41597    0.72669    0.22511   1.00
O2       0.39674    0.70948    0.19422   1.00
C3       0.41826    0.77577    0.27618   1.00
H1       0.40385    0.79512    0.29648   1.00
C3a      0.45713    0.72533    0.22571   1.00
H1       0.47202    0.70702    0.20476   1.00
C3b      0.45922    0.77525    0.27583   1.00
C4       0.47900    0.74997    0.25042   1.00
O_3      0.52167    0.80452    0.20450   1.00
C5       0.38720    0.67048    0.20332   1.00
H2       0.41391    0.65299    0.20986   1.00
C5       0.36666    0.65334    0.16755   1.00
H2       0.36726    0.66905    0.22898   1.00
H2       0.38923    0.64512    0.14567   1.00
H2       0.34899    0.67711    0.15415   1.00
C5       0.34069    0.61796    0.17750   1.00
H2       0.35811    0.59585    0.19359   1.00
H2       0.32891    0.60434    0.15045   1.00
H2       0.31494    0.62678    0.19550   1.00
C5       0.49020    0.82148    0.14541   1.00
H2       0.51218    0.84369    0.13646   1.00
H2       0.46955    0.83625    0.16572   1.00
C5       0.46803    0.80560    0.10971   1.00
H2       0.45666    0.83020    0.09191   1.00
C5       0.14930    0.36773    0.17260   1.00
H2       0.17346    0.35245    0.15734   1.00
H2       0.13739    0.38901    0.15124   1.00
C5       0.11759    0.33781    0.18437   1.00
H2       0.09815    0.33110    0.15921   1.00
H2       0.09967    0.34960    0.20876   1.00
O_3      0.19793    0.52000    0.29790   1.00
C4       0.25040    0.47900    0.24981   1.00
C3c      0.22723    0.45757    0.22368   1.00
H1       0.20897    0.47275    0.20292   1.00
C3d      0.27441    0.45865    0.27625   1.00
C3       0.22677    0.41646    0.22422   1.00
O2       0.20712    0.39752    0.19476   1.00
C3       0.27346    0.41773    0.27737   1.00
H1       0.29132    0.40343    0.29908   1.00
C2       0.24987    0.39561    0.25143   1.00
C5       0.21008    0.52121    0.33725   1.00
H2       0.21175    0.55162    0.34868   1.00
H2       0.23932    0.50734    0.34093   1.00
C5       0.18027    0.49878    0.36121   1.00
H2       0.17780    0.46871    0.34910   1.00
H2       0.15128    0.51309    0.35762   1.00
C5       0.19202    0.49746    0.40437   1.00
H2       0.19482    0.52740    0.41658   1.00
H2       0.22032    0.48197    0.40813   1.00
H2       0.16946    0.48170    0.42155   1.00
C5       0.33223    0.48895    0.28925   1.00
C5       0.16849    0.38930    0.20670   1.00
H2       0.32911    0.50912    0.26402   1.00
H2       0.34925    0.46288    0.27973   1.00
H2       0.15255    0.41700    0.21294   1.00
H2       0.16738    0.37105    0.23375   1.00
H2       0.13089    0.30945    0.19351   1.00
H2       0.38125    0.55750    0.28749   1.00
H2       0.40908    0.51234    0.28783   1.00
C2       0.24976    0.60395    0.25256   1.00
C3       0.27489    0.58403    0.22669   1.00
O2       0.30578    0.60326    0.20948   1.00
C3       0.22382    0.58174    0.27577   1.00
H1       0.20352    0.59615    0.29512   1.00
C3a      0.27429    0.54287    0.22533   1.00
H1       0.29524    0.52798    0.20702   1.00
C3b      0.22417    0.54078    0.27525   1.00
C4       0.24958    0.52100    0.24997   1.00
O_3      0.29550    0.47833    0.30452   1.00
C5       0.29668    0.61280    0.17048   1.00
H2       0.29014    0.58609    0.15299   1.00
C5       0.33245    0.63334    0.15334   1.00
H2       0.27102    0.63274    0.16905   1.00
H2       0.35433    0.61077    0.14512   1.00
H2       0.34585    0.65101    0.17711   1.00
C5       0.32250    0.65931    0.11796   1.00
H2       0.30641    0.64189    0.09585   1.00
H2       0.34955    0.67109    0.10434   1.00
H2       0.30450    0.68506    0.12678   1.00
C5       0.35459    0.50980    0.32148   1.00
H2       0.36354    0.48782    0.34369   1.00
H2       0.33428    0.53045    0.33625   1.00
C5       0.39029    0.53197    0.30560   1.00
H2       0.40809    0.54334    0.33020   1.00
C5       0.17260    0.64930    -0.13227   1.00
H2       0.15734    0.67346    -0.14755   1.00
H2       0.15124    0.63739    -0.11099   1.00
C5       0.18437    0.61759    -0.16219   1.00
H2       0.15921    0.59815    -0.16890   1.00
H2       0.20876    0.59967    -0.15040   1.00
O_3      0.29790    0.69793    0.02000   1.00
C4       0.24981    0.75040    -0.02100   1.00
C3c      0.22368    0.72723    -0.04243   1.00
H1       0.20292    0.70897    -0.02725   1.00
C3d      0.27625    0.77441    -0.04135   1.00
C3       0.22422    0.72677    -0.08354   1.00
O2       0.19476    0.70712    -0.10248   1.00
C3       0.27737    0.77346    -0.08227   1.00
H1       0.29908    0.79132    -0.09657   1.00
C2       0.25143    0.74987    -0.10439   1.00
C5       0.33725    0.71008    0.02121   1.00
H2       0.34868    0.71175    0.05162   1.00
H2       0.34093    0.73932    0.00734   1.00
C5       0.36121    0.68027    -0.00122   1.00
H2       0.34910    0.67780    -0.03129   1.00
H2       0.35762    0.65128    0.01309   1.00
C5       0.40437    0.69202    -0.00254   1.00
H2       0.41658    0.69482    0.02740   1.00
H2       0.40813    0.72032    -0.01803   1.00
H2       0.42155    0.66946    -0.01830   1.00
C5       0.28925    0.83223    -0.01105   1.00
C5       0.20670    0.66849    -0.11070   1.00
H2       0.26402    0.82911    0.00912   1.00
H2       0.27973    0.84925    -0.03712   1.00
H2       0.21294    0.65255    -0.08300   1.00
H2       0.23375    0.66738    -0.12895   1.00
H2       0.19351    0.63089    -0.19055   1.00
H2       0.28749    0.88125    0.05750   1.00
H2       0.28783    0.90908    0.01234   1.00
C2       0.25256    0.74976    0.10395   1.00
C3       0.22669    0.77489    0.08403   1.00
O2       0.20948    0.80578    0.10326   1.00
C3       0.27577    0.72382    0.08174   1.00
H1       0.29512    0.70352    0.09615   1.00
C3a      0.22533    0.77429    0.04287   1.00
H1       0.20702    0.79524    0.02798   1.00
C3b      0.27525    0.72417    0.04078   1.00
C4       0.24997    0.74958    0.02100   1.00
O_3      0.30452    0.79550    -0.02167   1.00
C5       0.17048    0.79668    0.11280   1.00
H2       0.15299    0.79014    0.08609   1.00
C5       0.15334    0.83245    0.13334   1.00
H2       0.16905    0.77102    0.13274   1.00
H2       0.14512    0.85433    0.11077   1.00
H2       0.17711    0.84585    0.15101   1.00
C5       0.11796    0.82250    0.15931   1.00
H2       0.09585    0.80641    0.14189   1.00
H2       0.10434    0.84955    0.17109   1.00
H2       0.12678    0.80450    0.18506   1.00
C5       0.32148    0.85459    0.00980   1.00
H2       0.34369    0.86354    -0.01218   1.00
H2       0.33625    0.83428    0.03045   1.00
C5       0.30560    0.89029    0.03197   1.00
H2       0.33020    0.90809    0.04334   1.00
C5       0.67260    0.35070    0.63227   1.00
H2       0.65734    0.32654    0.64755   1.00
H2       0.65124    0.36261    0.61099   1.00
C5       0.68437    0.38241    0.66219   1.00
H2       0.65921    0.40185    0.66890   1.00
H2       0.70876    0.40033    0.65040   1.00
O_3      0.79790    0.30207    0.48000   1.00
C4       0.74981    0.24960    0.52100   1.00
C3c      0.72368    0.27277    0.54243   1.00
H1       0.70292    0.29103    0.52725   1.00
C3d      0.77625    0.22559    0.54135   1.00
C3       0.72422    0.27323    0.58354   1.00
O2       0.69476    0.29288    0.60248   1.00
C3       0.77737    0.22654    0.58227   1.00
H1       0.79908    0.20868    0.59657   1.00
C2       0.75143    0.25013    0.60439   1.00
C5       0.83725    0.28992    0.47879   1.00
H2       0.84868    0.28825    0.44838   1.00
H2       0.84093    0.26068    0.49266   1.00
C5       0.86121    0.31973    0.50122   1.00
H2       0.84910    0.32220    0.53129   1.00
H2       0.85762    0.34872    0.48691   1.00
C5       0.90437    0.30798    0.50254   1.00
H2       0.91658    0.30518    0.47260   1.00
H2       0.90813    0.27968    0.51803   1.00
H2       0.92155    0.33054    0.51830   1.00
C5       0.78925    0.16777    0.51105   1.00
C5       0.70670    0.33151    0.61070   1.00
H2       0.76402    0.17089    0.49088   1.00
H2       0.77973    0.15075    0.53712   1.00
H2       0.71294    0.34745    0.58300   1.00
H2       0.73375    0.33262    0.62895   1.00
H2       0.69351    0.36911    0.69055   1.00
H2       0.78749    0.11875    0.44250   1.00
H2       0.78783    0.09092    0.48766   1.00
C2       0.75256    0.25024    0.39605   1.00
C3       0.72669    0.22511    0.41597   1.00
O2       0.70948    0.19422    0.39674   1.00
C3       0.77577    0.27618    0.41826   1.00
H1       0.79512    0.29648    0.40385   1.00
C3a      0.72533    0.22571    0.45713   1.00
H1       0.70702    0.20476    0.47202   1.00
C3b      0.77525    0.27583    0.45922   1.00
C4       0.74997    0.25042    0.47900   1.00
O_3      0.80452    0.20450    0.52167   1.00
C5       0.67048    0.20332    0.38720   1.00
H2       0.65299    0.20986    0.41391   1.00
C5       0.65334    0.16755    0.36666   1.00
H2       0.66905    0.22898    0.36726   1.00
H2       0.64512    0.14567    0.38923   1.00
H2       0.67711    0.15415    0.34899   1.00
C5       0.61796    0.17750    0.34069   1.00
H2       0.59585    0.19359    0.35811   1.00
H2       0.60434    0.15045    0.32891   1.00
H2       0.62678    0.19550    0.31494   1.00
C5       0.82148    0.14541    0.49020   1.00
H2       0.84369    0.13646    0.51218   1.00
H2       0.83625    0.16572    0.46955   1.00
C5       0.80560    0.10971    0.46803   1.00
H2       0.83020    0.09191    0.45666   1.00
C5       0.85070    0.63227    0.17260   1.00
H2       0.82654    0.64755    0.15734   1.00
H2       0.86261    0.61099    0.15124   1.00
C5       0.88241    0.66219    0.18437   1.00
H2       0.90185    0.66890    0.15921   1.00
H2       0.90033    0.65040    0.20876   1.00
O_3      0.80207    0.48000    0.29790   1.00
C4       0.74960    0.52100    0.24981   1.00
C3c      0.77277    0.54243    0.22368   1.00
H1       0.79103    0.52725    0.20292   1.00
C3d      0.72559    0.54135    0.27625   1.00
C3       0.77323    0.58354    0.22422   1.00
O2       0.79288    0.60248    0.19476   1.00
C3       0.72654    0.58227    0.27737   1.00
H1       0.70868    0.59657    0.29908   1.00
C2       0.75013    0.60439    0.25143   1.00
C5       0.78992    0.47879    0.33725   1.00
H2       0.78825    0.44838    0.34868   1.00
H2       0.76068    0.49266    0.34093   1.00
C5       0.81973    0.50122    0.36121   1.00
H2       0.82220    0.53129    0.34910   1.00
H2       0.84872    0.48691    0.35762   1.00
C5       0.80798    0.50254    0.40437   1.00
H2       0.80518    0.47260    0.41658   1.00
H2       0.77968    0.51803    0.40813   1.00
H2       0.83054    0.51830    0.42155   1.00
C5       0.66777    0.51105    0.28925   1.00
C5       0.83151    0.61070    0.20670   1.00
H2       0.67089    0.49088    0.26402   1.00
H2       0.65075    0.53712    0.27973   1.00
H2       0.84745    0.58300    0.21294   1.00
H2       0.83262    0.62895    0.23375   1.00
H2       0.86911    0.69055    0.19351   1.00
H2       0.61875    0.44250    0.28749   1.00
H2       0.59092    0.48766    0.28783   1.00
C2       0.75024    0.39605    0.25256   1.00
C3       0.72511    0.41597    0.22669   1.00
O2       0.69422    0.39674    0.20948   1.00
C3       0.77618    0.41826    0.27577   1.00
H1       0.79648    0.40385    0.29512   1.00
C3a      0.72571    0.45713    0.22533   1.00
H1       0.70476    0.47202    0.20702   1.00
C3b      0.77583    0.45922    0.27525   1.00
C4       0.75042    0.47900    0.24997   1.00
O_3      0.70450    0.52167    0.30452   1.00
C5       0.70332    0.38720    0.17048   1.00
H2       0.70986    0.41391    0.15299   1.00
C5       0.66755    0.36666    0.15334   1.00
H2       0.72898    0.36726    0.16905   1.00
H2       0.64567    0.38923    0.14512   1.00
H2       0.65415    0.34899    0.17711   1.00
C5       0.67750    0.34069    0.11796   1.00
H2       0.69359    0.35811    0.09585   1.00
H2       0.65045    0.32891    0.10434   1.00
H2       0.69550    0.31494    0.12678   1.00
C5       0.64541    0.49020    0.32148   1.00
H2       0.63646    0.51218    0.34369   1.00
H2       0.66572    0.46955    0.33625   1.00
C5       0.60971    0.46803    0.30560   1.00
H2       0.59191    0.45666    0.33020   1.00
C5       0.36773    0.17260    0.14930   1.00
H2       0.35245    0.15734    0.17346   1.00
H2       0.38901    0.15124    0.13739   1.00
C5       0.33781    0.18437    0.11759   1.00
H2       0.33110    0.15921    0.09815   1.00
H2       0.34960    0.20876    0.09967   1.00
O_3      0.52000    0.29790    0.19793   1.00
C4       0.47900    0.24981    0.25040   1.00
C3c      0.45757    0.22368    0.22723   1.00
H1       0.47275    0.20292    0.20897   1.00
C3d      0.45865    0.27625    0.27441   1.00
C3       0.41646    0.22422    0.22677   1.00
O2       0.39752    0.19476    0.20712   1.00
C3       0.41773    0.27737    0.27346   1.00
H1       0.40343    0.29908    0.29132   1.00
C2       0.39561    0.25143    0.24987   1.00
C5       0.52121    0.33725    0.21008   1.00
H2       0.55162    0.34868    0.21175   1.00
H2       0.50734    0.34093    0.23932   1.00
C5       0.49878    0.36121    0.18027   1.00
H2       0.46871    0.34910    0.17780   1.00
H2       0.51309    0.35762    0.15128   1.00
C5       0.49746    0.40437    0.19202   1.00
H2       0.52740    0.41658    0.19482   1.00
H2       0.48197    0.40813    0.22032   1.00
H2       0.48170    0.42155    0.16946   1.00
C5       0.48895    0.28925    0.33223   1.00
C5       0.38930    0.20670    0.16849   1.00
H2       0.50912    0.26402    0.32911   1.00
H2       0.46288    0.27973    0.34925   1.00
H2       0.41700    0.21294    0.15255   1.00
H2       0.37105    0.23375    0.16738   1.00
H2       0.30945    0.19351    0.13089   1.00
H2       0.55750    0.28749    0.38125   1.00
H2       0.51234    0.28783    0.40908   1.00
C2       0.60395    0.25256    0.24976   1.00
C3       0.58403    0.22669    0.27489   1.00
O2       0.60326    0.20948    0.30578   1.00
C3       0.58174    0.27577    0.22382   1.00
H1       0.59615    0.29512    0.20352   1.00
C3a      0.54287    0.22533    0.27429   1.00
H1       0.52798    0.20702    0.29524   1.00
C3b      0.54078    0.27525    0.22417   1.00
C4       0.52100    0.24997    0.24958   1.00
O_3      0.47833    0.30452    0.29550   1.00
C5       0.61280    0.17048    0.29668   1.00
H2       0.58609    0.15299    0.29014   1.00
C5       0.63334    0.15334    0.33245   1.00
H2       0.63274    0.16905    0.27102   1.00
H2       0.61077    0.14512    0.35433   1.00
H2       0.65101    0.17711    0.34585   1.00
C5       0.65931    0.11796    0.32250   1.00
H2       0.64189    0.09585    0.30641   1.00
H2       0.67109    0.10434    0.34955   1.00
H2       0.68506    0.12678    0.30450   1.00
C5       0.50980    0.32148    0.35459   1.00
H2       0.48782    0.34369    0.36354   1.00
H2       0.53045    0.33625    0.33428   1.00
C5       0.53197    0.30560    0.39029   1.00
H2       0.54334    0.33020    0.40809   1.00
C5       1.13227    0.17260    0.35070   1.00
H2       1.14755    0.15734    0.32654   1.00
H2       1.11099    0.15124    0.36261   1.00
C5       1.16219    0.18437    0.38241   1.00
H2       1.16890    0.15921    0.40185   1.00
H2       1.15040    0.20876    0.40033   1.00
O_3      0.98000    0.29790    0.30207   1.00
C4       1.02100    0.24981    0.24960   1.00
C3c      1.04243    0.22368    0.27277   1.00
H1       1.02725    0.20292    0.29103   1.00
C3d      1.04135    0.27625    0.22559   1.00
C3       1.08354    0.22422    0.27323   1.00
O2       1.10248    0.19476    0.29288   1.00
C3       1.08227    0.27737    0.22654   1.00
H1       1.09657    0.29908    0.20868   1.00
C2       1.10439    0.25143    0.25013   1.00
C5       0.97879    0.33725    0.28992   1.00
H2       0.94838    0.34868    0.28825   1.00
H2       0.99266    0.34093    0.26068   1.00
C5       1.00122    0.36121    0.31973   1.00
H2       1.03129    0.34910    0.32220   1.00
H2       0.98691    0.35762    0.34872   1.00
C5       1.00254    0.40437    0.30798   1.00
H2       0.97260    0.41658    0.30518   1.00
H2       1.01803    0.40813    0.27968   1.00
H2       1.01830    0.42155    0.33054   1.00
C5       1.01105    0.28925    0.16777   1.00
C5       1.11070    0.20670    0.33151   1.00
H2       0.99088    0.26402    0.17089   1.00
H2       1.03712    0.27973    0.15075   1.00
H2       1.08300    0.21294    0.34745   1.00
H2       1.12895    0.23375    0.33262   1.00
H2       1.19055    0.19351    0.36911   1.00
H2       0.94250    0.28749    0.11875   1.00
H2       0.98766    0.28783    0.09092   1.00
C2       0.89605    0.25256    0.25024   1.00
C3       0.91597    0.22669    0.22511   1.00
O2       0.89674    0.20948    0.19422   1.00
C3       0.91826    0.27577    0.27618   1.00
H1       0.90385    0.29512    0.29648   1.00
C3a      0.95713    0.22533    0.22571   1.00
H1       0.97202    0.20702    0.20476   1.00
C3b      0.95922    0.27525    0.27583   1.00
C4       0.97900    0.24997    0.25042   1.00
O_3      1.02167    0.30452    0.20450   1.00
C5       0.88720    0.17048    0.20332   1.00
H2       0.91391    0.15299    0.20986   1.00
C5       0.86666    0.15334    0.16755   1.00
H2       0.86726    0.16905    0.22898   1.00
H2       0.88923    0.14512    0.14567   1.00
H2       0.84899    0.17711    0.15415   1.00
C5       0.84069    0.11796    0.17750   1.00
H2       0.85811    0.09585    0.19359   1.00
H2       0.82891    0.10434    0.15045   1.00
H2       0.81494    0.12678    0.19550   1.00
C5       0.99020    0.32148    0.14541   1.00
H2       1.01218    0.34369    0.13646   1.00
H2       0.96955    0.33625    0.16572   1.00
C5       0.96803    0.30560    0.10971   1.00
H2       0.95666    0.33020    0.09191   1.00
C5       0.64930    -0.13227   0.17260   1.00
H2       0.67346    -0.14755   0.15734   1.00
H2       0.63739    -0.11099   0.15124   1.00
C5       0.61759    -0.16219   0.18437   1.00
H2       0.59815    -0.16890   0.15921   1.00
H2       0.59967    -0.15040   0.20876   1.00
O_3      0.69793    0.02000    0.29790   1.00
C4       0.75040    -0.02100   0.24981   1.00
C3c      0.72723    -0.04243   0.22368   1.00
H1       0.70897    -0.02725   0.20292   1.00
C3d      0.77441    -0.04135   0.27625   1.00
C3       0.72677    -0.08354   0.22422   1.00
O2       0.70712    -0.10248   0.19476   1.00
C3       0.77346    -0.08227   0.27737   1.00
H1       0.79132    -0.09657   0.29908   1.00
C2       0.74987    -0.10439   0.25143   1.00
C5       0.71008    0.02121    0.33725   1.00
H2       0.71175    0.05162    0.34868   1.00
H2       0.73932    0.00734    0.34093   1.00
C5       0.68027    -0.00122   0.36121   1.00
H2       0.67780    -0.03129   0.34910   1.00
H2       0.65128    0.01309    0.35762   1.00
C5       0.69202    -0.00254   0.40437   1.00
H2       0.69482    0.02740    0.41658   1.00
H2       0.72032    -0.01803   0.40813   1.00
H2       0.66946    -0.01830   0.42155   1.00
C5       0.83223    -0.01105   0.28925   1.00
C5       0.66849    -0.11070   0.20670   1.00
H2       0.82911    0.00912    0.26402   1.00
H2       0.84925    -0.03712   0.27973   1.00
H2       0.65255    -0.08300   0.21294   1.00
H2       0.66738    -0.12895   0.23375   1.00
H2       0.63089    -0.19055   0.19351   1.00
H2       0.88125    0.05750    0.28749   1.00
H2       0.90908    0.01234    0.28783   1.00
C2       0.74976    0.10395    0.25256   1.00
C3       0.77489    0.08403    0.22669   1.00
O2       0.80578    0.10326    0.20948   1.00
C3       0.72382    0.08174    0.27577   1.00
H1       0.70352    0.09615    0.29512   1.00
C3a      0.77429    0.04287    0.22533   1.00
H1       0.79524    0.02798    0.20702   1.00
C3b      0.72417    0.04078    0.27525   1.00
C4       0.74958    0.02100    0.24997   1.00
O_3      0.79550    -0.02167   0.30452   1.00
C5       0.79668    0.11280    0.17048   1.00
H2       0.79014    0.08609    0.15299   1.00
C5       0.83245    0.13334    0.15334   1.00
H2       0.77102    0.13274    0.16905   1.00
H2       0.85433    0.11077    0.14512   1.00
H2       0.84585    0.15101    0.17711   1.00
C5       0.82250    0.15931    0.11796   1.00
H2       0.80641    0.14189    0.09585   1.00
H2       0.84955    0.17109    0.10434   1.00
H2       0.80450    0.18506    0.12678   1.00
C5       0.85459    0.00980    0.32148   1.00
H2       0.86354    -0.01218   0.34369   1.00
H2       0.83428    0.03045    0.33625   1.00
C5       0.89029    0.03197    0.30560   1.00
H2       0.90809    0.04334    0.33020   1.00
C5       0.67260    0.14930    -0.13227   1.00
H2       0.65734    0.17346    -0.14755   1.00
H2       0.65124    0.13739    -0.11099   1.00
C5       0.68437    0.11759    -0.16219   1.00
H2       0.65921    0.09815    -0.16890   1.00
H2       0.70876    0.09967    -0.15040   1.00
O_3      0.79790    0.19793    0.02000   1.00
C4       0.74981    0.25040    -0.02100   1.00
C3c      0.72368    0.22723    -0.04243   1.00
H1       0.70292    0.20897    -0.02725   1.00
C3d      0.77625    0.27441    -0.04135   1.00
C3       0.72422    0.22677    -0.08354   1.00
O2       0.69476    0.20712    -0.10248   1.00
C3       0.77737    0.27346    -0.08227   1.00
H1       0.79908    0.29132    -0.09657   1.00
C2       0.75143    0.24987    -0.10439   1.00
C5       0.83725    0.21008    0.02121   1.00
H2       0.84868    0.21175    0.05162   1.00
H2       0.84093    0.23932    0.00734   1.00
C5       0.86121    0.18027    -0.00122   1.00
H2       0.84910    0.17780    -0.03129   1.00
H2       0.85762    0.15128    0.01309   1.00
C5       0.90437    0.19202    -0.00254   1.00
H2       0.91658    0.19482    0.02740   1.00
H2       0.90813    0.22032    -0.01803   1.00
H2       0.92155    0.16946    -0.01830   1.00
C5       0.78925    0.33223    -0.01105   1.00
C5       0.70670    0.16849    -0.11070   1.00
H2       0.76402    0.32911    0.00912   1.00
H2       0.77973    0.34925    -0.03712   1.00
H2       0.71294    0.15255    -0.08300   1.00
H2       0.73375    0.16738    -0.12895   1.00
H2       0.69351    0.13089    -0.19055   1.00
H2       0.78749    0.38125    0.05750   1.00
H2       0.78783    0.40908    0.01234   1.00
C2       0.75256    0.24976    0.10395   1.00
C3       0.72669    0.27489    0.08403   1.00
O2       0.70948    0.30578    0.10326   1.00
C3       0.77577    0.22382    0.08174   1.00
H1       0.79512    0.20352    0.09615   1.00
C3a      0.72533    0.27429    0.04287   1.00
H1       0.70702    0.29524    0.02798   1.00
C3b      0.77525    0.22417    0.04078   1.00
C4       0.74997    0.24958    0.02100   1.00
O_3      0.80452    0.29550    -0.02167   1.00
C5       0.67048    0.29668    0.11280   1.00
H2       0.65299    0.29014    0.08609   1.00
C5       0.65334    0.33245    0.13334   1.00
H2       0.66905    0.27102    0.13274   1.00
H2       0.64512    0.35433    0.11077   1.00
H2       0.67711    0.34585    0.15101   1.00
C5       0.61796    0.32250    0.15931   1.00
H2       0.59585    0.30641    0.14189   1.00
H2       0.60434    0.34955    0.17109   1.00
H2       0.62678    0.30450    0.18506   1.00
C5       0.82148    0.35459    0.00980   1.00
H2       0.84369    0.36354    -0.01218   1.00
H2       0.83625    0.33428    0.03045   1.00
C5       0.80560    0.39029    0.03197   1.00
H2       0.83020    0.40809    0.04334   1.00
C5       0.92260    1.10070    1.38227   1.00
H2       0.90734    1.07654    1.39755   1.00
H2       0.90124    1.11261    1.36099   1.00
C5       0.93437    1.13241    1.41219   1.00
H2       0.90921    1.15185    1.41890   1.00
H2       0.95876    1.15033    1.40040   1.00
O_3      1.04790    1.05207    1.23000   1.00
C4       0.99981    0.99960    1.27100   1.00
C3c      0.97368    1.02277    1.29243   1.00
H1       0.95292    1.04103    1.27725   1.00
C3d      1.02625    0.97559    1.29135   1.00
C3       0.97422    1.02323    1.33354   1.00
O2       0.94476    1.04288    1.35248   1.00
C3       1.02737    0.97654    1.33227   1.00
H1       1.04908    0.95868    1.34657   1.00
C2       1.00143    1.00013    1.35439   1.00
C5       1.08725    1.03992    1.22879   1.00
H2       1.09868    1.03825    1.19838   1.00
H2       1.09093    1.01068    1.24266   1.00
C5       1.11121    1.06973    1.25122   1.00
H2       1.09910    1.07220    1.28129   1.00
H2       1.10762    1.09872    1.23691   1.00
C5       1.15437    1.05798    1.25254   1.00
H2       1.16658    1.05518    1.22260   1.00
H2       1.15813    1.02968    1.26803   1.00
H2       1.17155    1.08054    1.26830   1.00
C5       1.03925    0.91777    1.26105   1.00
C5       0.95670    1.08151    1.36070   1.00
H2       1.01402    0.92089    1.24088   1.00
H2       1.02973    0.90075    1.28712   1.00
H2       0.96294    1.09745    1.33300   1.00
H2       0.98375    1.08262    1.37895   1.00
H2       0.94351    1.11911    1.44055   1.00
H2       1.03749    0.86875    1.19250   1.00
H2       1.03783    0.84092    1.23766   1.00
C2       1.00256    1.00024    1.14605   1.00
C3       0.97669    0.97511    1.16597   1.00
O2       0.95948    0.94422    1.14674   1.00
C3       1.02577    1.02618    1.16826   1.00
H1       1.04512    1.04648    1.15385   1.00
C3a      0.97533    0.97571    1.20713   1.00
H1       0.95702    0.95476    1.22202   1.00
C3b      1.02525    1.02583    1.20922   1.00
C4       0.99997    1.00042    1.22900   1.00
O_3      1.05452    0.95450    1.27167   1.00
C5       0.92048    0.95332    1.13720   1.00
H2       0.90299    0.95986    1.16391   1.00
C5       0.90334    0.91755    1.11666   1.00
H2       0.91905    0.97898    1.11726   1.00
H2       0.89512    0.89567    1.13923   1.00
H2       0.92711    0.90415    1.09899   1.00
C5       0.86796    0.92750    1.09069   1.00
H2       0.84585    0.94359    1.10811   1.00
H2       0.85434    0.90045    1.07891   1.00
H2       0.87678    0.94550    1.06494   1.00
C5       1.07148    0.89541    1.24020   1.00
H2       1.09369    0.88646    1.26218   1.00
H2       1.08625    0.91572    1.21955   1.00
C5       1.05560    0.85971    1.21803   1.00
H2       1.08020    0.84191    1.20666   1.00
C5       1.10070    1.38227    0.92260   1.00
H2       1.07654    1.39755    0.90734   1.00
H2       1.11261    1.36099    0.90124   1.00
C5       1.13241    1.41219    0.93437   1.00
H2       1.15185    1.41890    0.90921   1.00
H2       1.15033    1.40040    0.95876   1.00
O_3      1.05207    1.23000    1.04790   1.00
C4       0.99960    1.27100    0.99981   1.00
C3c      1.02277    1.29243    0.97368   1.00
H1       1.04103    1.27725    0.95292   1.00
C3d      0.97559    1.29135    1.02625   1.00
C3       1.02323    1.33354    0.97422   1.00
O2       1.04288    1.35248    0.94476   1.00
C3       0.97654    1.33227    1.02737   1.00
H1       0.95868    1.34657    1.04908   1.00
C2       1.00013    1.35439    1.00143   1.00
C5       1.03992    1.22879    1.08725   1.00
H2       1.03825    1.19838    1.09868   1.00
H2       1.01068    1.24266    1.09093   1.00
C5       1.06973    1.25122    1.11121   1.00
H2       1.07220    1.28129    1.09910   1.00
H2       1.09872    1.23691    1.10762   1.00
C5       1.05798    1.25254    1.15437   1.00
H2       1.05518    1.22260    1.16658   1.00
H2       1.02968    1.26803    1.15813   1.00
H2       1.08054    1.26830    1.17155   1.00
C5       0.91777    1.26105    1.03925   1.00
C5       1.08151    1.36070    0.95670   1.00
H2       0.92089    1.24088    1.01402   1.00
H2       0.90075    1.28712    1.02973   1.00
H2       1.09745    1.33300    0.96294   1.00
H2       1.08262    1.37895    0.98375   1.00
H2       1.11911    1.44055    0.94351   1.00
H2       0.86875    1.19250    1.03749   1.00
H2       0.84092    1.23766    1.03783   1.00
C2       1.00024    1.14605    1.00256   1.00
C3       0.97511    1.16597    0.97669   1.00
O2       0.94422    1.14674    0.95948   1.00
C3       1.02618    1.16826    1.02577   1.00
H1       1.04648    1.15385    1.04512   1.00
C3a      0.97571    1.20713    0.97533   1.00
H1       0.95476    1.22202    0.95702   1.00
C3b      1.02583    1.20922    1.02525   1.00
C4       1.00042    1.22900    0.99997   1.00
O_3      0.95450    1.27167    1.05452   1.00
C5       0.95332    1.13720    0.92048   1.00
H2       0.95986    1.16391    0.90299   1.00
C5       0.91755    1.11666    0.90334   1.00
H2       0.97898    1.11726    0.91905   1.00
H2       0.89567    1.13923    0.89512   1.00
H2       0.90415    1.09899    0.92711   1.00
C5       0.92750    1.09069    0.86796   1.00
H2       0.94359    1.10811    0.84585   1.00
H2       0.90045    1.07891    0.85434   1.00
H2       0.94550    1.06494    0.87678   1.00
C5       0.89541    1.24020    1.07148   1.00
H2       0.88646    1.26218    1.09369   1.00
H2       0.91572    1.21955    1.08625   1.00
C5       0.85971    1.21803    1.05560   1.00
H2       0.84191    1.20666    1.08020   1.00
C5       0.61773    0.92260    0.89930   1.00
H2       0.60245    0.90734    0.92346   1.00
H2       0.63901    0.90124    0.88739   1.00
C5       0.58781    0.93437    0.86759   1.00
H2       0.58110    0.90921    0.84815   1.00
H2       0.59960    0.95876    0.84967   1.00
O_3      0.77000    1.04790    0.94793   1.00
C4       0.72900    0.99981    1.00040   1.00
C3c      0.70757    0.97368    0.97723   1.00
H1       0.72275    0.95292    0.95897   1.00
C3d      0.70865    1.02625    1.02441   1.00
C3       0.66646    0.97422    0.97677   1.00
O2       0.64752    0.94476    0.95712   1.00
C3       0.66773    1.02737    1.02346   1.00
H1       0.65343    1.04908    1.04132   1.00
C2       0.64561    1.00143    0.99987   1.00
C5       0.77121    1.08725    0.96008   1.00
H2       0.80162    1.09868    0.96175   1.00
H2       0.75734    1.09093    0.98932   1.00
C5       0.74878    1.11121    0.93027   1.00
H2       0.71871    1.09910    0.92780   1.00
H2       0.76309    1.10762    0.90128   1.00
C5       0.74746    1.15437    0.94202   1.00
H2       0.77740    1.16658    0.94482   1.00
H2       0.73197    1.15813    0.97032   1.00
H2       0.73170    1.17155    0.91946   1.00
C5       0.73895    1.03925    1.08223   1.00
C5       0.63930    0.95670    0.91849   1.00
H2       0.75912    1.01402    1.07911   1.00
H2       0.71288    1.02973    1.09925   1.00
H2       0.66700    0.96294    0.90255   1.00
H2       0.62105    0.98375    0.91738   1.00
H2       0.55945    0.94351    0.88089   1.00
H2       0.80750    1.03749    1.13125   1.00
H2       0.76234    1.03783    1.15908   1.00
C2       0.85395    1.00256    0.99976   1.00
C3       0.83403    0.97669    1.02489   1.00
O2       0.85326    0.95948    1.05578   1.00
C3       0.83174    1.02577    0.97382   1.00
H1       0.84615    1.04512    0.95352   1.00
C3a      0.79287    0.97533    1.02429   1.00
H1       0.77798    0.95702    1.04524   1.00
C3b      0.79078    1.02525    0.97417   1.00
C4       0.77100    0.99997    0.99958   1.00
O_3      0.72833    1.05452    1.04550   1.00
C5       0.86280    0.92048    1.04668   1.00
H2       0.83609    0.90299    1.04014   1.00
C5       0.88334    0.90334    1.08245   1.00
H2       0.88274    0.91905    1.02102   1.00
H2       0.86077    0.89512    1.10433   1.00
H2       0.90101    0.92711    1.09585   1.00
C5       0.90931    0.86796    1.07250   1.00
H2       0.89189    0.84585    1.05641   1.00
H2       0.92109    0.85434    1.09955   1.00
H2       0.93506    0.87678    1.05450   1.00
C5       0.75980    1.07148    1.10459   1.00
H2       0.73782    1.09369    1.11354   1.00
H2       0.78045    1.08625    1.08428   1.00
C5       0.78197    1.05560    1.14029   1.00
H2       0.79334    1.08020    1.15809   1.00
C5       1.38227    0.92260    1.10070   1.00
H2       1.39755    0.90734    1.07654   1.00
H2       1.36099    0.90124    1.11261   1.00
C5       1.41219    0.93437    1.13241   1.00
H2       1.41890    0.90921    1.15185   1.00
H2       1.40040    0.95876    1.15033   1.00
O_3      1.23000    1.04790    1.05207   1.00
C4       1.27100    0.99981    0.99960   1.00
C3c      1.29243    0.97368    1.02277   1.00
H1       1.27725    0.95292    1.04103   1.00
C3d      1.29135    1.02625    0.97559   1.00
C3       1.33354    0.97422    1.02323   1.00
O2       1.35248    0.94476    1.04288   1.00
C3       1.33227    1.02737    0.97654   1.00
H1       1.34657    1.04908    0.95868   1.00
C2       1.35439    1.00143    1.00013   1.00
C5       1.22879    1.08725    1.03992   1.00
H2       1.19838    1.09868    1.03825   1.00
H2       1.24266    1.09093    1.01068   1.00
C5       1.25122    1.11121    1.06973   1.00
H2       1.28129    1.09910    1.07220   1.00
H2       1.23691    1.10762    1.09872   1.00
C5       1.25254    1.15437    1.05798   1.00
H2       1.22260    1.16658    1.05518   1.00
H2       1.26803    1.15813    1.02968   1.00
H2       1.26830    1.17155    1.08054   1.00
C5       1.26105    1.03925    0.91777   1.00
C5       1.36070    0.95670    1.08151   1.00
H2       1.24088    1.01402    0.92089   1.00
H2       1.28712    1.02973    0.90075   1.00
H2       1.33300    0.96294    1.09745   1.00
H2       1.37895    0.98375    1.08262   1.00
H2       1.44055    0.94351    1.11911   1.00
H2       1.19250    1.03749    0.86875   1.00
H2       1.23766    1.03783    0.84092   1.00
C2       1.14605    1.00256    1.00024   1.00
C3       1.16597    0.97669    0.97511   1.00
O2       1.14674    0.95948    0.94422   1.00
C3       1.16826    1.02577    1.02618   1.00
H1       1.15385    1.04512    1.04648   1.00
C3a      1.20713    0.97533    0.97571   1.00
H1       1.22202    0.95702    0.95476   1.00
C3b      1.20922    1.02525    1.02583   1.00
C4       1.22900    0.99997    1.00042   1.00
O_3      1.27167    1.05452    0.95450   1.00
C5       1.13720    0.92048    0.95332   1.00
H2       1.16391    0.90299    0.95986   1.00
C5       1.11666    0.90334    0.91755   1.00
H2       1.11726    0.91905    0.97898   1.00
H2       1.13923    0.89512    0.89567   1.00
H2       1.09899    0.92711    0.90415   1.00
C5       1.09069    0.86796    0.92750   1.00
H2       1.10811    0.84585    0.94359   1.00
H2       1.07891    0.85434    0.90045   1.00
H2       1.06494    0.87678    0.94550   1.00
C5       1.24020    1.07148    0.89541   1.00
H2       1.26218    1.09369    0.88646   1.00
H2       1.21955    1.08625    0.91572   1.00
C5       1.21803    1.05560    0.85971   1.00
H2       1.20666    1.08020    0.84191   1.00
C5       0.89930    0.61773    0.92260   1.00
H2       0.92346    0.60245    0.90734   1.00
H2       0.88739    0.63901    0.90124   1.00
C5       0.86759    0.58781    0.93437   1.00
H2       0.84815    0.58110    0.90921   1.00
H2       0.84967    0.59960    0.95876   1.00
O_3      0.94793    0.77000    1.04790   1.00
C4       1.00040    0.72900    0.99981   1.00
C3c      0.97723    0.70757    0.97368   1.00
H1       0.95897    0.72275    0.95292   1.00
C3d      1.02441    0.70865    1.02625   1.00
C3       0.97677    0.66646    0.97422   1.00
O2       0.95712    0.64752    0.94476   1.00
C3       1.02346    0.66773    1.02737   1.00
H1       1.04132    0.65343    1.04908   1.00
C2       0.99987    0.64561    1.00143   1.00
C5       0.96008    0.77121    1.08725   1.00
H2       0.96175    0.80162    1.09868   1.00
H2       0.98932    0.75734    1.09093   1.00
C5       0.93027    0.74878    1.11121   1.00
H2       0.92780    0.71871    1.09910   1.00
H2       0.90128    0.76309    1.10762   1.00
C5       0.94202    0.74746    1.15437   1.00
H2       0.94482    0.77740    1.16658   1.00
H2       0.97032    0.73197    1.15813   1.00
H2       0.91946    0.73170    1.17155   1.00
C5       1.08223    0.73895    1.03925   1.00
C5       0.91849    0.63930    0.95670   1.00
H2       1.07911    0.75912    1.01402   1.00
H2       1.09925    0.71288    1.02973   1.00
H2       0.90255    0.66700    0.96294   1.00
H2       0.91738    0.62105    0.98375   1.00
H2       0.88089    0.55945    0.94351   1.00
H2       1.13125    0.80750    1.03749   1.00
H2       1.15908    0.76234    1.03783   1.00
C2       0.99976    0.85395    1.00256   1.00
C3       1.02489    0.83403    0.97669   1.00
O2       1.05578    0.85326    0.95948   1.00
C3       0.97382    0.83174    1.02577   1.00
H1       0.95352    0.84615    1.04512   1.00
C3a      1.02429    0.79287    0.97533   1.00
H1       1.04524    0.77798    0.95702   1.00
C3b      0.97417    0.79078    1.02525   1.00
C4       0.99958    0.77100    0.99997   1.00
O_3      1.04550    0.72833    1.05452   1.00
C5       1.04668    0.86280    0.92048   1.00
H2       1.04014    0.83609    0.90299   1.00
C5       1.08245    0.88334    0.90334   1.00
H2       1.02102    0.88274    0.91905   1.00
H2       1.10433    0.86077    0.89512   1.00
H2       1.09585    0.90101    0.92711   1.00
C5       1.07250    0.90931    0.86796   1.00
H2       1.05641    0.89189    0.84585   1.00
H2       1.09955    0.92109    0.85434   1.00
H2       1.05450    0.93506    0.87678   1.00
C5       1.10459    0.75980    1.07148   1.00
H2       1.11354    0.73782    1.09369   1.00
H2       1.08428    0.78045    1.08625   1.00
C5       1.14029    0.78197    1.05560   1.00
H2       1.15809    0.79334    1.08020   1.00
C5       0.92260    0.89930    0.61773   1.00
H2       0.90734    0.92346    0.60245   1.00
H2       0.90124    0.88739    0.63901   1.00
C5       0.93437    0.86759    0.58781   1.00
H2       0.90921    0.84815    0.58110   1.00
H2       0.95876    0.84967    0.59960   1.00
O_3      1.04790    0.94793    0.77000   1.00
C4       0.99981    1.00040    0.72900   1.00
C3c      0.97368    0.97723    0.70757   1.00
H1       0.95292    0.95897    0.72275   1.00
C3d      1.02625    1.02441    0.70865   1.00
C3       0.97422    0.97677    0.66646   1.00
O2       0.94476    0.95712    0.64752   1.00
C3       1.02737    1.02346    0.66773   1.00
H1       1.04908    1.04132    0.65343   1.00
C2       1.00143    0.99987    0.64561   1.00
C5       1.08725    0.96008    0.77121   1.00
H2       1.09868    0.96175    0.80162   1.00
H2       1.09093    0.98932    0.75734   1.00
C5       1.11121    0.93027    0.74878   1.00
H2       1.09910    0.92780    0.71871   1.00
H2       1.10762    0.90128    0.76309   1.00
C5       1.15437    0.94202    0.74746   1.00
H2       1.16658    0.94482    0.77740   1.00
H2       1.15813    0.97032    0.73197   1.00
H2       1.17155    0.91946    0.73170   1.00
C5       1.03925    1.08223    0.73895   1.00
C5       0.95670    0.91849    0.63930   1.00
H2       1.01402    1.07911    0.75912   1.00
H2       1.02973    1.09925    0.71288   1.00
H2       0.96294    0.90255    0.66700   1.00
H2       0.98375    0.91738    0.62105   1.00
H2       0.94351    0.88089    0.55945   1.00
H2       1.03749    1.13125    0.80750   1.00
H2       1.03783    1.15908    0.76234   1.00
C2       1.00256    0.99976    0.85395   1.00
C3       0.97669    1.02489    0.83403   1.00
O2       0.95948    1.05578    0.85326   1.00
C3       1.02577    0.97382    0.83174   1.00
H1       1.04512    0.95352    0.84615   1.00
C3a      0.97533    1.02429    0.79287   1.00
H1       0.95702    1.04524    0.77798   1.00
C3b      1.02525    0.97417    0.79078   1.00
C4       0.99997    0.99958    0.77100   1.00
O_3      1.05452    1.04550    0.72833   1.00
C5       0.92048    1.04668    0.86280   1.00
H2       0.90299    1.04014    0.83609   1.00
C5       0.90334    1.08245    0.88334   1.00
H2       0.91905    1.02102    0.88274   1.00
H2       0.89512    1.10433    0.86077   1.00
H2       0.92711    1.09585    0.90101   1.00
C5       0.86796    1.07250    0.90931   1.00
H2       0.84585    1.05641    0.89189   1.00
H2       0.85434    1.09955    0.92109   1.00
H2       0.87678    1.05450    0.93506   1.00
C5       1.07148    1.10459    0.75980   1.00
H2       1.09369    1.11354    0.73782   1.00
H2       1.08625    1.08428    0.78045   1.00
C5       1.05560    1.14029    0.78197   1.00
H2       1.08020    1.15809    0.79334   1.00
C5       0.42260    0.60070    1.38227   1.00
H2       0.40734    0.57654    1.39755   1.00
H2       0.40124    0.61261    1.36099   1.00
C5       0.43437    0.63241    1.41219   1.00
H2       0.40921    0.65185    1.41890   1.00
H2       0.45876    0.65033    1.40040   1.00
O_3      0.54790    0.55207    1.23000   1.00
C4       0.49981    0.49960    1.27100   1.00
C3c      0.47368    0.52277    1.29243   1.00
H1       0.45292    0.54103    1.27725   1.00
C3d      0.52625    0.47559    1.29135   1.00
C3       0.47422    0.52323    1.33354   1.00
O2       0.44476    0.54288    1.35248   1.00
C3       0.52737    0.47654    1.33227   1.00
H1       0.54908    0.45868    1.34657   1.00
C2       0.50143    0.50013    1.35439   1.00
C5       0.58725    0.53992    1.22879   1.00
H2       0.59868    0.53825    1.19838   1.00
H2       0.59093    0.51068    1.24266   1.00
C5       0.61121    0.56973    1.25122   1.00
H2       0.59910    0.57220    1.28129   1.00
H2       0.60762    0.59872    1.23691   1.00
C5       0.65437    0.55798    1.25254   1.00
H2       0.66658    0.55518    1.22260   1.00
H2       0.65813    0.52968    1.26803   1.00
H2       0.67155    0.58054    1.26830   1.00
C5       0.53925    0.41777    1.26105   1.00
C5       0.45670    0.58151    1.36070   1.00
H2       0.51402    0.42089    1.24088   1.00
H2       0.52973    0.40075    1.28712   1.00
H2       0.46294    0.59745    1.33300   1.00
H2       0.48375    0.58262    1.37895   1.00
H2       0.44351    0.61911    1.44055   1.00
H2       0.53749    0.36875    1.19250   1.00
H2       0.53783    0.34092    1.23766   1.00
C2       0.50256    0.50024    1.14605   1.00
C3       0.47669    0.47511    1.16597   1.00
O2       0.45948    0.44422    1.14674   1.00
C3       0.52577    0.52618    1.16826   1.00
H1       0.54512    0.54648    1.15385   1.00
C3a      0.47533    0.47571    1.20713   1.00
H1       0.45702    0.45476    1.22202   1.00
C3b      0.52525    0.52583    1.20922   1.00
C4       0.49997    0.50042    1.22900   1.00
O_3      0.55452    0.45450    1.27167   1.00
C5       0.42048    0.45332    1.13720   1.00
H2       0.40299    0.45986    1.16391   1.00
C5       0.40334    0.41755    1.11666   1.00
H2       0.41905    0.47898    1.11726   1.00
H2       0.39512    0.39567    1.13923   1.00
H2       0.42711    0.40415    1.09899   1.00
C5       0.36796    0.42750    1.09069   1.00
H2       0.34585    0.44359    1.10811   1.00
H2       0.35434    0.40045    1.07891   1.00
H2       0.37678    0.44550    1.06494   1.00
C5       0.57148    0.39541    1.24020   1.00
H2       0.59369    0.38646    1.26218   1.00
H2       0.58625    0.41572    1.21955   1.00
C5       0.55560    0.35971    1.21803   1.00
H2       0.58020    0.34191    1.20666   1.00
C5       0.60070    0.88227    0.92260   1.00
H2       0.57654    0.89755    0.90734   1.00
H2       0.61261    0.86099    0.90124   1.00
C5       0.63241    0.91219    0.93437   1.00
H2       0.65185    0.91890    0.90921   1.00
H2       0.65033    0.90040    0.95876   1.00
O_3      0.55207    0.73000    1.04790   1.00
C4       0.49960    0.77100    0.99981   1.00
C3c      0.52277    0.79243    0.97368   1.00
H1       0.54103    0.77725    0.95292   1.00
C3d      0.47559    0.79135    1.02625   1.00
C3       0.52323    0.83354    0.97422   1.00
O2       0.54288    0.85248    0.94476   1.00
C3       0.47654    0.83227    1.02737   1.00
H1       0.45868    0.84657    1.04908   1.00
C2       0.50013    0.85439    1.00143   1.00
C5       0.53992    0.72879    1.08725   1.00
H2       0.53825    0.69838    1.09868   1.00
H2       0.51068    0.74266    1.09093   1.00
C5       0.56973    0.75122    1.11121   1.00
H2       0.57220    0.78129    1.09910   1.00
H2       0.59872    0.73691    1.10762   1.00
C5       0.55798    0.75254    1.15437   1.00
H2       0.55518    0.72260    1.16658   1.00
H2       0.52968    0.76803    1.15813   1.00
H2       0.58054    0.76830    1.17155   1.00
C5       0.41777    0.76105    1.03925   1.00
C5       0.58151    0.86070    0.95670   1.00
H2       0.42089    0.74088    1.01402   1.00
H2       0.40075    0.78712    1.02973   1.00
H2       0.59745    0.83300    0.96294   1.00
H2       0.58262    0.87895    0.98375   1.00
H2       0.61911    0.94055    0.94351   1.00
H2       0.36875    0.69250    1.03749   1.00
H2       0.34092    0.73766    1.03783   1.00
C2       0.50024    0.64605    1.00256   1.00
C3       0.47511    0.66597    0.97669   1.00
O2       0.44422    0.64674    0.95948   1.00
C3       0.52618    0.66826    1.02577   1.00
H1       0.54648    0.65385    1.04512   1.00
C3a      0.47571    0.70713    0.97533   1.00
H1       0.45476    0.72202    0.95702   1.00
C3b      0.52583    0.70922    1.02525   1.00
C4       0.50042    0.72900    0.99997   1.00
O_3      0.45450    0.77167    1.05452   1.00
C5       0.45332    0.63720    0.92048   1.00
H2       0.45986    0.66391    0.90299   1.00
C5       0.41755    0.61666    0.90334   1.00
H2       0.47898    0.61726    0.91905   1.00
H2       0.39567    0.63923    0.89512   1.00
H2       0.40415    0.59899    0.92711   1.00
C5       0.42750    0.59069    0.86796   1.00
H2       0.44359    0.60811    0.84585   1.00
H2       0.40045    0.57891    0.85434   1.00
H2       0.44550    0.56494    0.87678   1.00
C5       0.39541    0.74020    1.07148   1.00
H2       0.38646    0.76218    1.09369   1.00
H2       0.41572    0.71955    1.08625   1.00
C5       0.35971    0.71803    1.05560   1.00
H2       0.34191    0.70666    1.08020   1.00
C5       0.11773    0.42260    0.89930   1.00
H2       0.10245    0.40734    0.92346   1.00
H2       0.13901    0.40124    0.88739   1.00
C5       0.08781    0.43437    0.86759   1.00
H2       0.08110    0.40921    0.84815   1.00
H2       0.09960    0.45876    0.84967   1.00
O_3      0.27000    0.54790    0.94793   1.00
C4       0.22900    0.49981    1.00040   1.00
C3c      0.20757    0.47368    0.97723   1.00
H1       0.22275    0.45292    0.95897   1.00
C3d      0.20865    0.52625    1.02441   1.00
C3       0.16646    0.47422    0.97677   1.00
O2       0.14752    0.44476    0.95712   1.00
C3       0.16773    0.52737    1.02346   1.00
H1       0.15343    0.54908    1.04132   1.00
C2       0.14561    0.50143    0.99987   1.00
C5       0.27121    0.58725    0.96008   1.00
H2       0.30162    0.59868    0.96175   1.00
H2       0.25734    0.59093    0.98932   1.00
C5       0.24878    0.61121    0.93027   1.00
H2       0.21871    0.59910    0.92780   1.00
H2       0.26309    0.60762    0.90128   1.00
C5       0.24746    0.65437    0.94202   1.00
H2       0.27740    0.66658    0.94482   1.00
H2       0.23197    0.65813    0.97032   1.00
H2       0.23170    0.67155    0.91946   1.00
C5       0.23895    0.53925    1.08223   1.00
C5       0.13930    0.45670    0.91849   1.00
H2       0.25912    0.51402    1.07911   1.00
H2       0.21288    0.52973    1.09925   1.00
H2       0.16700    0.46294    0.90255   1.00
H2       0.12105    0.48375    0.91738   1.00
H2       0.05945    0.44351    0.88089   1.00
H2       0.30750    0.53749    1.13125   1.00
H2       0.26234    0.53783    1.15908   1.00
C2       0.35395    0.50256    0.99976   1.00
C3       0.33403    0.47669    1.02489   1.00
O2       0.35326    0.45948    1.05578   1.00
C3       0.33174    0.52577    0.97382   1.00
H1       0.34615    0.54512    0.95352   1.00
C3a      0.29287    0.47533    1.02429   1.00
H1       0.27798    0.45702    1.04524   1.00
C3b      0.29078    0.52525    0.97417   1.00
C4       0.27100    0.49997    0.99958   1.00
O_3      0.22833    0.55452    1.04550   1.00
C5       0.36280    0.42048    1.04668   1.00
H2       0.33609    0.40299    1.04014   1.00
C5       0.38334    0.40334    1.08245   1.00
H2       0.38274    0.41905    1.02102   1.00
H2       0.36077    0.39512    1.10433   1.00
H2       0.40101    0.42711    1.09585   1.00
C5       0.40931    0.36796    1.07250   1.00
H2       0.39189    0.34585    1.05641   1.00
H2       0.42109    0.35434    1.09955   1.00
H2       0.43506    0.37678    1.05450   1.00
C5       0.25980    0.57148    1.10459   1.00
H2       0.23782    0.59369    1.11354   1.00
H2       0.28045    0.58625    1.08428   1.00
C5       0.28197    0.55560    1.14029   1.00
H2       0.29334    0.58020    1.15809   1.00
C5       0.88227    0.42260    1.10070   1.00
H2       0.89755    0.40734    1.07654   1.00
H2       0.86099    0.40124    1.11261   1.00
C5       0.91219    0.43437    1.13241   1.00
H2       0.91890    0.40921    1.15185   1.00
H2       0.90040    0.45876    1.15033   1.00
O_3      0.73000    0.54790    1.05207   1.00
C4       0.77100    0.49981    0.99960   1.00
C3c      0.79243    0.47368    1.02277   1.00
H1       0.77725    0.45292    1.04103   1.00
C3d      0.79135    0.52625    0.97559   1.00
C3       0.83354    0.47422    1.02323   1.00
O2       0.85248    0.44476    1.04288   1.00
C3       0.83227    0.52737    0.97654   1.00
H1       0.84657    0.54908    0.95868   1.00
C2       0.85439    0.50143    1.00013   1.00
C5       0.72879    0.58725    1.03992   1.00
H2       0.69838    0.59868    1.03825   1.00
H2       0.74266    0.59093    1.01068   1.00
C5       0.75122    0.61121    1.06973   1.00
H2       0.78129    0.59910    1.07220   1.00
H2       0.73691    0.60762    1.09872   1.00
C5       0.75254    0.65437    1.05798   1.00
H2       0.72260    0.66658    1.05518   1.00
H2       0.76803    0.65813    1.02968   1.00
H2       0.76830    0.67155    1.08054   1.00
C5       0.76105    0.53925    0.91777   1.00
C5       0.86070    0.45670    1.08151   1.00
H2       0.74088    0.51402    0.92089   1.00
H2       0.78712    0.52973    0.90075   1.00
H2       0.83300    0.46294    1.09745   1.00
H2       0.87895    0.48375    1.08262   1.00
H2       0.94055    0.44351    1.11911   1.00
H2       0.69250    0.53749    0.86875   1.00
H2       0.73766    0.53783    0.84092   1.00
C2       0.64605    0.50256    1.00024   1.00
C3       0.66597    0.47669    0.97511   1.00
O2       0.64674    0.45948    0.94422   1.00
C3       0.66826    0.52577    1.02618   1.00
H1       0.65385    0.54512    1.04648   1.00
C3a      0.70713    0.47533    0.97571   1.00
H1       0.72202    0.45702    0.95476   1.00
C3b      0.70922    0.52525    1.02583   1.00
C4       0.72900    0.49997    1.00042   1.00
O_3      0.77167    0.55452    0.95450   1.00
C5       0.63720    0.42048    0.95332   1.00
H2       0.66391    0.40299    0.95986   1.00
C5       0.61666    0.40334    0.91755   1.00
H2       0.61726    0.41905    0.97898   1.00
H2       0.63923    0.39512    0.89567   1.00
H2       0.59899    0.42711    0.90415   1.00
C5       0.59069    0.36796    0.92750   1.00
H2       0.60811    0.34585    0.94359   1.00
H2       0.57891    0.35434    0.90045   1.00
H2       0.56494    0.37678    0.94550   1.00
C5       0.74020    0.57148    0.89541   1.00
H2       0.76218    0.59369    0.88646   1.00
H2       0.71955    0.58625    0.91572   1.00
C5       0.71803    0.55560    0.85971   1.00
H2       0.70666    0.58020    0.84191   1.00
C5       0.39930    0.11773    0.92260   1.00
H2       0.42346    0.10245    0.90734   1.00
H2       0.38739    0.13901    0.90124   1.00
C5       0.36759    0.08781    0.93437   1.00
H2       0.34815    0.08110    0.90921   1.00
H2       0.34967    0.09960    0.95876   1.00
O_3      0.44793    0.27000    1.04790   1.00
C4       0.50040    0.22900    0.99981   1.00
C3c      0.47723    0.20757    0.97368   1.00
H1       0.45897    0.22275    0.95292   1.00
C3d      0.52441    0.20865    1.02625   1.00
C3       0.47677    0.16646    0.97422   1.00
O2       0.45712    0.14752    0.94476   1.00
C3       0.52346    0.16773    1.02737   1.00
H1       0.54132    0.15343    1.04908   1.00
C2       0.49987    0.14561    1.00143   1.00
C5       0.46008    0.27121    1.08725   1.00
H2       0.46175    0.30162    1.09868   1.00
H2       0.48932    0.25734    1.09093   1.00
C5       0.43027    0.24878    1.11121   1.00
H2       0.42780    0.21871    1.09910   1.00
H2       0.40128    0.26309    1.10762   1.00
C5       0.44202    0.24746    1.15437   1.00
H2       0.44482    0.27740    1.16658   1.00
H2       0.47032    0.23197    1.15813   1.00
H2       0.41946    0.23170    1.17155   1.00
C5       0.58223    0.23895    1.03925   1.00
C5       0.41849    0.13930    0.95670   1.00
H2       0.57911    0.25912    1.01402   1.00
H2       0.59925    0.21288    1.02973   1.00
H2       0.40255    0.16700    0.96294   1.00
H2       0.41738    0.12105    0.98375   1.00
H2       0.38089    0.05945    0.94351   1.00
H2       0.63125    0.30750    1.03749   1.00
H2       0.65908    0.26234    1.03783   1.00
C2       0.49976    0.35395    1.00256   1.00
C3       0.52489    0.33403    0.97669   1.00
O2       0.55578    0.35326    0.95948   1.00
C3       0.47382    0.33174    1.02577   1.00
H1       0.45352    0.34615    1.04512   1.00
C3a      0.52429    0.29287    0.97533   1.00
H1       0.54524    0.27798    0.95702   1.00
C3b      0.47417    0.29078    1.02525   1.00
C4       0.49958    0.27100    0.99997   1.00
O_3      0.54550    0.22833    1.05452   1.00
C5       0.54668    0.36280    0.92048   1.00
H2       0.54014    0.33609    0.90299   1.00
C5       0.58245    0.38334    0.90334   1.00
H2       0.52102    0.38274    0.91905   1.00
H2       0.60433    0.36077    0.89512   1.00
H2       0.59585    0.40101    0.92711   1.00
C5       0.57250    0.40931    0.86796   1.00
H2       0.55641    0.39189    0.84585   1.00
H2       0.59955    0.42109    0.85434   1.00
H2       0.55450    0.43506    0.87678   1.00
C5       0.60459    0.25980    1.07148   1.00
H2       0.61354    0.23782    1.09369   1.00
H2       0.58428    0.28045    1.08625   1.00
C5       0.64029    0.28197    1.05560   1.00
H2       0.65809    0.29334    1.08020   1.00
C5       0.42260    0.39930    0.61773   1.00
H2       0.40734    0.42346    0.60245   1.00
H2       0.40124    0.38739    0.63901   1.00
C5       0.43437    0.36759    0.58781   1.00
H2       0.40921    0.34815    0.58110   1.00
H2       0.45876    0.34967    0.59960   1.00
O_3      0.54790    0.44793    0.77000   1.00
C4       0.49981    0.50040    0.72900   1.00
C3c      0.47368    0.47723    0.70757   1.00
H1       0.45292    0.45897    0.72275   1.00
C3d      0.52625    0.52441    0.70865   1.00
C3       0.47422    0.47677    0.66646   1.00
O2       0.44476    0.45712    0.64752   1.00
C3       0.52737    0.52346    0.66773   1.00
H1       0.54908    0.54132    0.65343   1.00
C2       0.50143    0.49987    0.64561   1.00
C5       0.58725    0.46008    0.77121   1.00
H2       0.59868    0.46175    0.80162   1.00
H2       0.59093    0.48932    0.75734   1.00
C5       0.61121    0.43027    0.74878   1.00
H2       0.59910    0.42780    0.71871   1.00
H2       0.60762    0.40128    0.76309   1.00
C5       0.65437    0.44202    0.74746   1.00
H2       0.66658    0.44482    0.77740   1.00
H2       0.65813    0.47032    0.73197   1.00
H2       0.67155    0.41946    0.73170   1.00
C5       0.53925    0.58223    0.73895   1.00
C5       0.45670    0.41849    0.63930   1.00
H2       0.51402    0.57911    0.75912   1.00
H2       0.52973    0.59925    0.71288   1.00
H2       0.46294    0.40255    0.66700   1.00
H2       0.48375    0.41738    0.62105   1.00
H2       0.44351    0.38089    0.55945   1.00
H2       0.53749    0.63125    0.80750   1.00
H2       0.53783    0.65908    0.76234   1.00
C2       0.50256    0.49976    0.85395   1.00
C3       0.47669    0.52489    0.83403   1.00
O2       0.45948    0.55578    0.85326   1.00
C3       0.52577    0.47382    0.83174   1.00
H1       0.54512    0.45352    0.84615   1.00
C3a      0.47533    0.52429    0.79287   1.00
H1       0.45702    0.54524    0.77798   1.00
C3b      0.52525    0.47417    0.79078   1.00
C4       0.49997    0.49958    0.77100   1.00
O_3      0.55452    0.54550    0.72833   1.00
C5       0.42048    0.54668    0.86280   1.00
H2       0.40299    0.54014    0.83609   1.00
C5       0.40334    0.58245    0.88334   1.00
H2       0.41905    0.52102    0.88274   1.00
H2       0.39512    0.60433    0.86077   1.00
H2       0.42711    0.59585    0.90101   1.00
C5       0.36796    0.57250    0.90931   1.00
H2       0.34585    0.55641    0.89189   1.00
H2       0.35434    0.59955    0.92109   1.00
H2       0.37678    0.55450    0.93506   1.00
C5       0.57148    0.60459    0.75980   1.00
H2       0.59369    0.61354    0.73782   1.00
H2       0.58625    0.58428    0.78045   1.00
C5       0.55560    0.64029    0.78197   1.00
H2       0.58020    0.65809    0.79334   1.00
C5       0.42260    1.10070    0.88227   1.00
H2       0.40734    1.07654    0.89755   1.00
H2       0.40124    1.11261    0.86099   1.00
C5       0.43437    1.13241    0.91219   1.00
H2       0.40921    1.15185    0.91890   1.00
H2       0.45876    1.15033    0.90040   1.00
O_3      0.54790    1.05207    0.73000   1.00
C4       0.49981    0.99960    0.77100   1.00
C3c      0.47368    1.02277    0.79243   1.00
H1       0.45292    1.04103    0.77725   1.00
C3d      0.52625    0.97559    0.79135   1.00
C3       0.47422    1.02323    0.83354   1.00
O2       0.44476    1.04288    0.85248   1.00
C3       0.52737    0.97654    0.83227   1.00
H1       0.54908    0.95868    0.84657   1.00
C2       0.50143    1.00013    0.85439   1.00
C5       0.58725    1.03992    0.72879   1.00
H2       0.59868    1.03825    0.69838   1.00
H2       0.59093    1.01068    0.74266   1.00
C5       0.61121    1.06973    0.75122   1.00
H2       0.59910    1.07220    0.78129   1.00
H2       0.60762    1.09872    0.73691   1.00
C5       0.65437    1.05798    0.75254   1.00
H2       0.66658    1.05518    0.72260   1.00
H2       0.65813    1.02968    0.76803   1.00
H2       0.67155    1.08054    0.76830   1.00
C5       0.53925    0.91777    0.76105   1.00
C5       0.45670    1.08151    0.86070   1.00
H2       0.51402    0.92089    0.74088   1.00
H2       0.52973    0.90075    0.78712   1.00
H2       0.46294    1.09745    0.83300   1.00
H2       0.48375    1.08262    0.87895   1.00
H2       0.44351    1.11911    0.94055   1.00
H2       0.53749    0.86875    0.69250   1.00
H2       0.53783    0.84092    0.73766   1.00
C2       0.50256    1.00024    0.64605   1.00
C3       0.47669    0.97511    0.66597   1.00
O2       0.45948    0.94422    0.64674   1.00
C3       0.52577    1.02618    0.66826   1.00
H1       0.54512    1.04648    0.65385   1.00
C3a      0.47533    0.97571    0.70713   1.00
H1       0.45702    0.95476    0.72202   1.00
C3b      0.52525    1.02583    0.70922   1.00
C4       0.49997    1.00042    0.72900   1.00
O_3      0.55452    0.95450    0.77167   1.00
C5       0.42048    0.95332    0.63720   1.00
H2       0.40299    0.95986    0.66391   1.00
C5       0.40334    0.91755    0.61666   1.00
H2       0.41905    0.97898    0.61726   1.00
H2       0.39512    0.89567    0.63923   1.00
H2       0.42711    0.90415    0.59899   1.00
C5       0.36796    0.92750    0.59069   1.00
H2       0.34585    0.94359    0.60811   1.00
H2       0.35434    0.90045    0.57891   1.00
H2       0.37678    0.94550    0.56494   1.00
C5       0.57148    0.89541    0.74020   1.00
H2       0.59369    0.88646    0.76218   1.00
H2       0.58625    0.91572    0.71955   1.00
C5       0.55560    0.85971    0.71803   1.00
H2       0.58020    0.84191    0.70666   1.00
C5       0.60070    1.38227    0.42260   1.00
H2       0.57654    1.39755    0.40734   1.00
H2       0.61261    1.36099    0.40124   1.00
C5       0.63241    1.41219    0.43437   1.00
H2       0.65185    1.41890    0.40921   1.00
H2       0.65033    1.40040    0.45876   1.00
O_3      0.55207    1.23000    0.54790   1.00
C4       0.49960    1.27100    0.49981   1.00
C3c      0.52277    1.29243    0.47368   1.00
H1       0.54103    1.27725    0.45292   1.00
C3d      0.47559    1.29135    0.52625   1.00
C3       0.52323    1.33354    0.47422   1.00
O2       0.54288    1.35248    0.44476   1.00
C3       0.47654    1.33227    0.52737   1.00
H1       0.45868    1.34657    0.54908   1.00
C2       0.50013    1.35439    0.50143   1.00
C5       0.53992    1.22879    0.58725   1.00
H2       0.53825    1.19838    0.59868   1.00
H2       0.51068    1.24266    0.59093   1.00
C5       0.56973    1.25122    0.61121   1.00
H2       0.57220    1.28129    0.59910   1.00
H2       0.59872    1.23691    0.60762   1.00
C5       0.55798    1.25254    0.65437   1.00
H2       0.55518    1.22260    0.66658   1.00
H2       0.52968    1.26803    0.65813   1.00
H2       0.58054    1.26830    0.67155   1.00
C5       0.41777    1.26105    0.53925   1.00
C5       0.58151    1.36070    0.45670   1.00
H2       0.42089    1.24088    0.51402   1.00
H2       0.40075    1.28712    0.52973   1.00
H2       0.59745    1.33300    0.46294   1.00
H2       0.58262    1.37895    0.48375   1.00
H2       0.61911    1.44055    0.44351   1.00
H2       0.36875    1.19250    0.53749   1.00
H2       0.34092    1.23766    0.53783   1.00
C2       0.50024    1.14605    0.50256   1.00
C3       0.47511    1.16597    0.47669   1.00
O2       0.44422    1.14674    0.45948   1.00
C3       0.52618    1.16826    0.52577   1.00
H1       0.54648    1.15385    0.54512   1.00
C3a      0.47571    1.20713    0.47533   1.00
H1       0.45476    1.22202    0.45702   1.00
C3b      0.52583    1.20922    0.52525   1.00
C4       0.50042    1.22900    0.49997   1.00
O_3      0.45450    1.27167    0.55452   1.00
C5       0.45332    1.13720    0.42048   1.00
H2       0.45986    1.16391    0.40299   1.00
C5       0.41755    1.11666    0.40334   1.00
H2       0.47898    1.11726    0.41905   1.00
H2       0.39567    1.13923    0.39512   1.00
H2       0.40415    1.09899    0.42711   1.00
C5       0.42750    1.09069    0.36796   1.00
H2       0.44359    1.10811    0.34585   1.00
H2       0.40045    1.07891    0.35434   1.00
H2       0.44550    1.06494    0.37678   1.00
C5       0.39541    1.24020    0.57148   1.00
H2       0.38646    1.26218    0.59369   1.00
H2       0.41572    1.21955    0.58625   1.00
C5       0.35971    1.21803    0.55560   1.00
H2       0.34191    1.20666    0.58020   1.00
C5       0.11773    0.92260    0.39930   1.00
H2       0.10245    0.90734    0.42346   1.00
H2       0.13901    0.90124    0.38739   1.00
C5       0.08781    0.93437    0.36759   1.00
H2       0.08110    0.90921    0.34815   1.00
H2       0.09960    0.95876    0.34967   1.00
O_3      0.27000    1.04790    0.44793   1.00
C4       0.22900    0.99981    0.50040   1.00
C3c      0.20757    0.97368    0.47723   1.00
H1       0.22275    0.95292    0.45897   1.00
C3d      0.20865    1.02625    0.52441   1.00
C3       0.16646    0.97422    0.47677   1.00
O2       0.14752    0.94476    0.45712   1.00
C3       0.16773    1.02737    0.52346   1.00
H1       0.15343    1.04908    0.54132   1.00
C2       0.14561    1.00143    0.49987   1.00
C5       0.27121    1.08725    0.46008   1.00
H2       0.30162    1.09868    0.46175   1.00
H2       0.25734    1.09093    0.48932   1.00
C5       0.24878    1.11121    0.43027   1.00
H2       0.21871    1.09910    0.42780   1.00
H2       0.26309    1.10762    0.40128   1.00
C5       0.24746    1.15437    0.44202   1.00
H2       0.27740    1.16658    0.44482   1.00
H2       0.23197    1.15813    0.47032   1.00
H2       0.23170    1.17155    0.41946   1.00
C5       0.23895    1.03925    0.58223   1.00
C5       0.13930    0.95670    0.41849   1.00
H2       0.25912    1.01402    0.57911   1.00
H2       0.21288    1.02973    0.59925   1.00
H2       0.16700    0.96294    0.40255   1.00
H2       0.12105    0.98375    0.41738   1.00
H2       0.05945    0.94351    0.38089   1.00
H2       0.30750    1.03749    0.63125   1.00
H2       0.26234    1.03783    0.65908   1.00
C2       0.35395    1.00256    0.49976   1.00
C3       0.33403    0.97669    0.52489   1.00
O2       0.35326    0.95948    0.55578   1.00
C3       0.33174    1.02577    0.47382   1.00
H1       0.34615    1.04512    0.45352   1.00
C3a      0.29287    0.97533    0.52429   1.00
H1       0.27798    0.95702    0.54524   1.00
C3b      0.29078    1.02525    0.47417   1.00
C4       0.27100    0.99997    0.49958   1.00
O_3      0.22833    1.05452    0.54550   1.00
C5       0.36280    0.92048    0.54668   1.00
H2       0.33609    0.90299    0.54014   1.00
C5       0.38334    0.90334    0.58245   1.00
H2       0.38274    0.91905    0.52102   1.00
H2       0.36077    0.89512    0.60433   1.00
H2       0.40101    0.92711    0.59585   1.00
C5       0.40931    0.86796    0.57250   1.00
H2       0.39189    0.84585    0.55641   1.00
H2       0.42109    0.85434    0.59955   1.00
H2       0.43506    0.87678    0.55450   1.00
C5       0.25980    1.07148    0.60459   1.00
H2       0.23782    1.09369    0.61354   1.00
H2       0.28045    1.08625    0.58428   1.00
C5       0.28197    1.05560    0.64029   1.00
H2       0.29334    1.08020    0.65809   1.00
C5       0.88227    0.92260    0.60070   1.00
H2       0.89755    0.90734    0.57654   1.00
H2       0.86099    0.90124    0.61261   1.00
C5       0.91219    0.93437    0.63241   1.00
H2       0.91890    0.90921    0.65185   1.00
H2       0.90040    0.95876    0.65033   1.00
O_3      0.73000    1.04790    0.55207   1.00
C4       0.77100    0.99981    0.49960   1.00
C3c      0.79243    0.97368    0.52277   1.00
H1       0.77725    0.95292    0.54103   1.00
C3d      0.79135    1.02625    0.47559   1.00
C3       0.83354    0.97422    0.52323   1.00
O2       0.85248    0.94476    0.54288   1.00
C3       0.83227    1.02737    0.47654   1.00
H1       0.84657    1.04908    0.45868   1.00
C2       0.85439    1.00143    0.50013   1.00
C5       0.72879    1.08725    0.53992   1.00
H2       0.69838    1.09868    0.53825   1.00
H2       0.74266    1.09093    0.51068   1.00
C5       0.75122    1.11121    0.56973   1.00
H2       0.78129    1.09910    0.57220   1.00
H2       0.73691    1.10762    0.59872   1.00
C5       0.75254    1.15437    0.55798   1.00
H2       0.72260    1.16658    0.55518   1.00
H2       0.76803    1.15813    0.52968   1.00
H2       0.76830    1.17155    0.58054   1.00
C5       0.76105    1.03925    0.41777   1.00
C5       0.86070    0.95670    0.58151   1.00
H2       0.74088    1.01402    0.42089   1.00
H2       0.78712    1.02973    0.40075   1.00
H2       0.83300    0.96294    0.59745   1.00
H2       0.87895    0.98375    0.58262   1.00
H2       0.94055    0.94351    0.61911   1.00
H2       0.69250    1.03749    0.36875   1.00
H2       0.73766    1.03783    0.34092   1.00
C2       0.64605    1.00256    0.50024   1.00
C3       0.66597    0.97669    0.47511   1.00
O2       0.64674    0.95948    0.44422   1.00
C3       0.66826    1.02577    0.52618   1.00
H1       0.65385    1.04512    0.54648   1.00
C3a      0.70713    0.97533    0.47571   1.00
H1       0.72202    0.95702    0.45476   1.00
C3b      0.70922    1.02525    0.52583   1.00
C4       0.72900    0.99997    0.50042   1.00
O_3      0.77167    1.05452    0.45450   1.00
C5       0.63720    0.92048    0.45332   1.00
H2       0.66391    0.90299    0.45986   1.00
C5       0.61666    0.90334    0.41755   1.00
H2       0.61726    0.91905    0.47898   1.00
H2       0.63923    0.89512    0.39567   1.00
H2       0.59899    0.92711    0.40415   1.00
C5       0.59069    0.86796    0.42750   1.00
H2       0.60811    0.84585    0.44359   1.00
H2       0.57891    0.85434    0.40045   1.00
H2       0.56494    0.87678    0.44550   1.00
C5       0.74020    1.07148    0.39541   1.00
H2       0.76218    1.09369    0.38646   1.00
H2       0.71955    1.08625    0.41572   1.00
C5       0.71803    1.05560    0.35971   1.00
H2       0.70666    1.08020    0.34191   1.00
C5       0.39930    0.61773    0.42260   1.00
H2       0.42346    0.60245    0.40734   1.00
H2       0.38739    0.63901    0.40124   1.00
C5       0.36759    0.58781    0.43437   1.00
H2       0.34815    0.58110    0.40921   1.00
H2       0.34967    0.59960    0.45876   1.00
O_3      0.44793    0.77000    0.54790   1.00
C4       0.50040    0.72900    0.49981   1.00
C3c      0.47723    0.70757    0.47368   1.00
H1       0.45897    0.72275    0.45292   1.00
C3d      0.52441    0.70865    0.52625   1.00
C3       0.47677    0.66646    0.47422   1.00
O2       0.45712    0.64752    0.44476   1.00
C3       0.52346    0.66773    0.52737   1.00
H1       0.54132    0.65343    0.54908   1.00
C2       0.49987    0.64561    0.50143   1.00
C5       0.46008    0.77121    0.58725   1.00
H2       0.46175    0.80162    0.59868   1.00
H2       0.48932    0.75734    0.59093   1.00
C5       0.43027    0.74878    0.61121   1.00
H2       0.42780    0.71871    0.59910   1.00
H2       0.40128    0.76309    0.60762   1.00
C5       0.44202    0.74746    0.65437   1.00
H2       0.44482    0.77740    0.66658   1.00
H2       0.47032    0.73197    0.65813   1.00
H2       0.41946    0.73170    0.67155   1.00
C5       0.58223    0.73895    0.53925   1.00
C5       0.41849    0.63930    0.45670   1.00
H2       0.57911    0.75912    0.51402   1.00
H2       0.59925    0.71288    0.52973   1.00
H2       0.40255    0.66700    0.46294   1.00
H2       0.41738    0.62105    0.48375   1.00
H2       0.38089    0.55945    0.44351   1.00
H2       0.63125    0.80750    0.53749   1.00
H2       0.65908    0.76234    0.53783   1.00
C2       0.49976    0.85395    0.50256   1.00
C3       0.52489    0.83403    0.47669   1.00
O2       0.55578    0.85326    0.45948   1.00
C3       0.47382    0.83174    0.52577   1.00
H1       0.45352    0.84615    0.54512   1.00
C3a      0.52429    0.79287    0.47533   1.00
H1       0.54524    0.77798    0.45702   1.00
C3b      0.47417    0.79078    0.52525   1.00
C4       0.49958    0.77100    0.49997   1.00
O_3      0.54550    0.72833    0.55452   1.00
C5       0.54668    0.86280    0.42048   1.00
H2       0.54014    0.83609    0.40299   1.00
C5       0.58245    0.88334    0.40334   1.00
H2       0.52102    0.88274    0.41905   1.00
H2       0.60433    0.86077    0.39512   1.00
H2       0.59585    0.90101    0.42711   1.00
C5       0.57250    0.90931    0.36796   1.00
H2       0.55641    0.89189    0.34585   1.00
H2       0.59955    0.92109    0.35434   1.00
H2       0.55450    0.93506    0.37678   1.00
C5       0.60459    0.75980    0.57148   1.00
H2       0.61354    0.73782    0.59369   1.00
H2       0.58428    0.78045    0.58625   1.00
C5       0.64029    0.78197    0.55560   1.00
H2       0.65809    0.79334    0.58020   1.00
C5       0.42260    0.89930    0.11773   1.00
H2       0.40734    0.92346    0.10245   1.00
H2       0.40124    0.88739    0.13901   1.00
C5       0.43437    0.86759    0.08781   1.00
H2       0.40921    0.84815    0.08110   1.00
H2       0.45876    0.84967    0.09960   1.00
O_3      0.54790    0.94793    0.27000   1.00
C4       0.49981    1.00040    0.22900   1.00
C3c      0.47368    0.97723    0.20757   1.00
H1       0.45292    0.95897    0.22275   1.00
C3d      0.52625    1.02441    0.20865   1.00
C3       0.47422    0.97677    0.16646   1.00
O2       0.44476    0.95712    0.14752   1.00
C3       0.52737    1.02346    0.16773   1.00
H1       0.54908    1.04132    0.15343   1.00
C2       0.50143    0.99987    0.14561   1.00
C5       0.58725    0.96008    0.27121   1.00
H2       0.59868    0.96175    0.30162   1.00
H2       0.59093    0.98932    0.25734   1.00
C5       0.61121    0.93027    0.24878   1.00
H2       0.59910    0.92780    0.21871   1.00
H2       0.60762    0.90128    0.26309   1.00
C5       0.65437    0.94202    0.24746   1.00
H2       0.66658    0.94482    0.27740   1.00
H2       0.65813    0.97032    0.23197   1.00
H2       0.67155    0.91946    0.23170   1.00
C5       0.53925    1.08223    0.23895   1.00
C5       0.45670    0.91849    0.13930   1.00
H2       0.51402    1.07911    0.25912   1.00
H2       0.52973    1.09925    0.21288   1.00
H2       0.46294    0.90255    0.16700   1.00
H2       0.48375    0.91738    0.12105   1.00
H2       0.44351    0.88089    0.05945   1.00
H2       0.53749    1.13125    0.30750   1.00
H2       0.53783    1.15908    0.26234   1.00
C2       0.50256    0.99976    0.35395   1.00
C3       0.47669    1.02489    0.33403   1.00
O2       0.45948    1.05578    0.35326   1.00
C3       0.52577    0.97382    0.33174   1.00
H1       0.54512    0.95352    0.34615   1.00
C3a      0.47533    1.02429    0.29287   1.00
H1       0.45702    1.04524    0.27798   1.00
C3b      0.52525    0.97417    0.29078   1.00
C4       0.49997    0.99958    0.27100   1.00
O_3      0.55452    1.04550    0.22833   1.00
C5       0.42048    1.04668    0.36280   1.00
H2       0.40299    1.04014    0.33609   1.00
C5       0.40334    1.08245    0.38334   1.00
H2       0.41905    1.02102    0.38274   1.00
H2       0.39512    1.10433    0.36077   1.00
H2       0.42711    1.09585    0.40101   1.00
C5       0.36796    1.07250    0.40931   1.00
H2       0.34585    1.05641    0.39189   1.00
H2       0.35434    1.09955    0.42109   1.00
H2       0.37678    1.05450    0.43506   1.00
C5       0.57148    1.10459    0.25980   1.00
H2       0.59369    1.11354    0.23782   1.00
H2       0.58625    1.08428    0.28045   1.00
C5       0.55560    1.14029    0.28197   1.00
H2       0.58020    1.15809    0.29334   1.00
C5       0.92260    0.60070    0.88227   1.00
H2       0.90734    0.57654    0.89755   1.00
H2       0.90124    0.61261    0.86099   1.00
C5       0.93437    0.63241    0.91219   1.00
H2       0.90921    0.65185    0.91890   1.00
H2       0.95876    0.65033    0.90040   1.00
O_3      1.04790    0.55207    0.73000   1.00
C4       0.99981    0.49960    0.77100   1.00
C3c      0.97368    0.52277    0.79243   1.00
H1       0.95292    0.54103    0.77725   1.00
C3d      1.02625    0.47559    0.79135   1.00
C3       0.97422    0.52323    0.83354   1.00
O2       0.94476    0.54288    0.85248   1.00
C3       1.02737    0.47654    0.83227   1.00
H1       1.04908    0.45868    0.84657   1.00
C2       1.00143    0.50013    0.85439   1.00
C5       1.08725    0.53992    0.72879   1.00
H2       1.09868    0.53825    0.69838   1.00
H2       1.09093    0.51068    0.74266   1.00
C5       1.11121    0.56973    0.75122   1.00
H2       1.09910    0.57220    0.78129   1.00
H2       1.10762    0.59872    0.73691   1.00
C5       1.15437    0.55798    0.75254   1.00
H2       1.16658    0.55518    0.72260   1.00
H2       1.15813    0.52968    0.76803   1.00
H2       1.17155    0.58054    0.76830   1.00
C5       1.03925    0.41777    0.76105   1.00
C5       0.95670    0.58151    0.86070   1.00
H2       1.01402    0.42089    0.74088   1.00
H2       1.02973    0.40075    0.78712   1.00
H2       0.96294    0.59745    0.83300   1.00
H2       0.98375    0.58262    0.87895   1.00
H2       0.94351    0.61911    0.94055   1.00
H2       1.03749    0.36875    0.69250   1.00
H2       1.03783    0.34092    0.73766   1.00
C2       1.00256    0.50024    0.64605   1.00
C3       0.97669    0.47511    0.66597   1.00
O2       0.95948    0.44422    0.64674   1.00
C3       1.02577    0.52618    0.66826   1.00
H1       1.04512    0.54648    0.65385   1.00
C3a      0.97533    0.47571    0.70713   1.00
H1       0.95702    0.45476    0.72202   1.00
C3b      1.02525    0.52583    0.70922   1.00
C4       0.99997    0.50042    0.72900   1.00
O_3      1.05452    0.45450    0.77167   1.00
C5       0.92048    0.45332    0.63720   1.00
H2       0.90299    0.45986    0.66391   1.00
C5       0.90334    0.41755    0.61666   1.00
H2       0.91905    0.47898    0.61726   1.00
H2       0.89512    0.39567    0.63923   1.00
H2       0.92711    0.40415    0.59899   1.00
C5       0.86796    0.42750    0.59069   1.00
H2       0.84585    0.44359    0.60811   1.00
H2       0.85434    0.40045    0.57891   1.00
H2       0.87678    0.44550    0.56494   1.00
C5       1.07148    0.39541    0.74020   1.00
H2       1.09369    0.38646    0.76218   1.00
H2       1.08625    0.41572    0.71955   1.00
C5       1.05560    0.35971    0.71803   1.00
H2       1.08020    0.34191    0.70666   1.00
C5       1.10070    0.88227    0.42260   1.00
H2       1.07654    0.89755    0.40734   1.00
H2       1.11261    0.86099    0.40124   1.00
C5       1.13241    0.91219    0.43437   1.00
H2       1.15185    0.91890    0.40921   1.00
H2       1.15033    0.90040    0.45876   1.00
O_3      1.05207    0.73000    0.54790   1.00
C4       0.99960    0.77100    0.49981   1.00
C3c      1.02277    0.79243    0.47368   1.00
H1       1.04103    0.77725    0.45292   1.00
C3d      0.97559    0.79135    0.52625   1.00
C3       1.02323    0.83354    0.47422   1.00
O2       1.04288    0.85248    0.44476   1.00
C3       0.97654    0.83227    0.52737   1.00
H1       0.95868    0.84657    0.54908   1.00
C2       1.00013    0.85439    0.50143   1.00
C5       1.03992    0.72879    0.58725   1.00
H2       1.03825    0.69838    0.59868   1.00
H2       1.01068    0.74266    0.59093   1.00
C5       1.06973    0.75122    0.61121   1.00
H2       1.07220    0.78129    0.59910   1.00
H2       1.09872    0.73691    0.60762   1.00
C5       1.05798    0.75254    0.65437   1.00
H2       1.05518    0.72260    0.66658   1.00
H2       1.02968    0.76803    0.65813   1.00
H2       1.08054    0.76830    0.67155   1.00
C5       0.91777    0.76105    0.53925   1.00
C5       1.08151    0.86070    0.45670   1.00
H2       0.92089    0.74088    0.51402   1.00
H2       0.90075    0.78712    0.52973   1.00
H2       1.09745    0.83300    0.46294   1.00
H2       1.08262    0.87895    0.48375   1.00
H2       1.11911    0.94055    0.44351   1.00
H2       0.86875    0.69250    0.53749   1.00
H2       0.84092    0.73766    0.53783   1.00
C2       1.00024    0.64605    0.50256   1.00
C3       0.97511    0.66597    0.47669   1.00
O2       0.94422    0.64674    0.45948   1.00
C3       1.02618    0.66826    0.52577   1.00
H1       1.04648    0.65385    0.54512   1.00
C3a      0.97571    0.70713    0.47533   1.00
H1       0.95476    0.72202    0.45702   1.00
C3b      1.02583    0.70922    0.52525   1.00
C4       1.00042    0.72900    0.49997   1.00
O_3      0.95450    0.77167    0.55452   1.00
C5       0.95332    0.63720    0.42048   1.00
H2       0.95986    0.66391    0.40299   1.00
C5       0.91755    0.61666    0.40334   1.00
H2       0.97898    0.61726    0.41905   1.00
H2       0.89567    0.63923    0.39512   1.00
H2       0.90415    0.59899    0.42711   1.00
C5       0.92750    0.59069    0.36796   1.00
H2       0.94359    0.60811    0.34585   1.00
H2       0.90045    0.57891    0.35434   1.00
H2       0.94550    0.56494    0.37678   1.00
C5       0.89541    0.74020    0.57148   1.00
H2       0.88646    0.76218    0.59369   1.00
H2       0.91572    0.71955    0.58625   1.00
C5       0.85971    0.71803    0.55560   1.00
H2       0.84191    0.70666    0.58020   1.00
C5       0.61773    0.42260    0.39930   1.00
H2       0.60245    0.40734    0.42346   1.00
H2       0.63901    0.40124    0.38739   1.00
C5       0.58781    0.43437    0.36759   1.00
H2       0.58110    0.40921    0.34815   1.00
H2       0.59960    0.45876    0.34967   1.00
O_3      0.77000    0.54790    0.44793   1.00
C4       0.72900    0.49981    0.50040   1.00
C3c      0.70757    0.47368    0.47723   1.00
H1       0.72275    0.45292    0.45897   1.00
C3d      0.70865    0.52625    0.52441   1.00
C3       0.66646    0.47422    0.47677   1.00
O2       0.64752    0.44476    0.45712   1.00
C3       0.66773    0.52737    0.52346   1.00
H1       0.65343    0.54908    0.54132   1.00
C2       0.64561    0.50143    0.49987   1.00
C5       0.77121    0.58725    0.46008   1.00
H2       0.80162    0.59868    0.46175   1.00
H2       0.75734    0.59093    0.48932   1.00
C5       0.74878    0.61121    0.43027   1.00
H2       0.71871    0.59910    0.42780   1.00
H2       0.76309    0.60762    0.40128   1.00
C5       0.74746    0.65437    0.44202   1.00
H2       0.77740    0.66658    0.44482   1.00
H2       0.73197    0.65813    0.47032   1.00
H2       0.73170    0.67155    0.41946   1.00
C5       0.73895    0.53925    0.58223   1.00
C5       0.63930    0.45670    0.41849   1.00
H2       0.75912    0.51402    0.57911   1.00
H2       0.71288    0.52973    0.59925   1.00
H2       0.66700    0.46294    0.40255   1.00
H2       0.62105    0.48375    0.41738   1.00
H2       0.55945    0.44351    0.38089   1.00
H2       0.80750    0.53749    0.63125   1.00
H2       0.76234    0.53783    0.65908   1.00
C2       0.85395    0.50256    0.49976   1.00
C3       0.83403    0.47669    0.52489   1.00
O2       0.85326    0.45948    0.55578   1.00
C3       0.83174    0.52577    0.47382   1.00
H1       0.84615    0.54512    0.45352   1.00
C3a      0.79287    0.47533    0.52429   1.00
H1       0.77798    0.45702    0.54524   1.00
C3b      0.79078    0.52525    0.47417   1.00
C4       0.77100    0.49997    0.49958   1.00
O_3      0.72833    0.55452    0.54550   1.00
C5       0.86280    0.42048    0.54668   1.00
H2       0.83609    0.40299    0.54014   1.00
C5       0.88334    0.40334    0.58245   1.00
H2       0.88274    0.41905    0.52102   1.00
H2       0.86077    0.39512    0.60433   1.00
H2       0.90101    0.42711    0.59585   1.00
C5       0.90931    0.36796    0.57250   1.00
H2       0.89189    0.34585    0.55641   1.00
H2       0.92109    0.35434    0.59955   1.00
H2       0.93506    0.37678    0.55450   1.00
C5       0.75980    0.57148    0.60459   1.00
H2       0.73782    0.59369    0.61354   1.00
H2       0.78045    0.58625    0.58428   1.00
C5       0.78197    0.55560    0.64029   1.00
H2       0.79334    0.58020    0.65809   1.00
C5       1.38227    0.42260    0.60070   1.00
H2       1.39755    0.40734    0.57654   1.00
H2       1.36099    0.40124    0.61261   1.00
C5       1.41219    0.43437    0.63241   1.00
H2       1.41890    0.40921    0.65185   1.00
H2       1.40040    0.45876    0.65033   1.00
O_3      1.23000    0.54790    0.55207   1.00
C4       1.27100    0.49981    0.49960   1.00
C3c      1.29243    0.47368    0.52277   1.00
H1       1.27725    0.45292    0.54103   1.00
C3d      1.29135    0.52625    0.47559   1.00
C3       1.33354    0.47422    0.52323   1.00
O2       1.35248    0.44476    0.54288   1.00
C3       1.33227    0.52737    0.47654   1.00
H1       1.34657    0.54908    0.45868   1.00
C2       1.35439    0.50143    0.50013   1.00
C5       1.22879    0.58725    0.53992   1.00
H2       1.19838    0.59868    0.53825   1.00
H2       1.24266    0.59093    0.51068   1.00
C5       1.25122    0.61121    0.56973   1.00
H2       1.28129    0.59910    0.57220   1.00
H2       1.23691    0.60762    0.59872   1.00
C5       1.25254    0.65437    0.55798   1.00
H2       1.22260    0.66658    0.55518   1.00
H2       1.26803    0.65813    0.52968   1.00
H2       1.26830    0.67155    0.58054   1.00
C5       1.26105    0.53925    0.41777   1.00
C5       1.36070    0.45670    0.58151   1.00
H2       1.24088    0.51402    0.42089   1.00
H2       1.28712    0.52973    0.40075   1.00
H2       1.33300    0.46294    0.59745   1.00
H2       1.37895    0.48375    0.58262   1.00
H2       1.44055    0.44351    0.61911   1.00
H2       1.19250    0.53749    0.36875   1.00
H2       1.23766    0.53783    0.34092   1.00
C2       1.14605    0.50256    0.50024   1.00
C3       1.16597    0.47669    0.47511   1.00
O2       1.14674    0.45948    0.44422   1.00
C3       1.16826    0.52577    0.52618   1.00
H1       1.15385    0.54512    0.54648   1.00
C3a      1.20713    0.47533    0.47571   1.00
H1       1.22202    0.45702    0.45476   1.00
C3b      1.20922    0.52525    0.52583   1.00
C4       1.22900    0.49997    0.50042   1.00
O_3      1.27167    0.55452    0.45450   1.00
C5       1.13720    0.42048    0.45332   1.00
H2       1.16391    0.40299    0.45986   1.00
C5       1.11666    0.40334    0.41755   1.00
H2       1.11726    0.41905    0.47898   1.00
H2       1.13923    0.39512    0.39567   1.00
H2       1.09899    0.42711    0.40415   1.00
C5       1.09069    0.36796    0.42750   1.00
H2       1.10811    0.34585    0.44359   1.00
H2       1.07891    0.35434    0.40045   1.00
H2       1.06494    0.37678    0.44550   1.00
C5       1.24020    0.57148    0.39541   1.00
H2       1.26218    0.59369    0.38646   1.00
H2       1.21955    0.58625    0.41572   1.00
C5       1.21803    0.55560    0.35971   1.00
H2       1.20666    0.58020    0.34191   1.00
C5       0.89930    0.11773    0.42260   1.00
H2       0.92346    0.10245    0.40734   1.00
H2       0.88739    0.13901    0.40124   1.00
C5       0.86759    0.08781    0.43437   1.00
H2       0.84815    0.08110    0.40921   1.00
H2       0.84967    0.09960    0.45876   1.00
O_3      0.94793    0.27000    0.54790   1.00
C4       1.00040    0.22900    0.49981   1.00
C3c      0.97723    0.20757    0.47368   1.00
H1       0.95897    0.22275    0.45292   1.00
C3d      1.02441    0.20865    0.52625   1.00
C3       0.97677    0.16646    0.47422   1.00
O2       0.95712    0.14752    0.44476   1.00
C3       1.02346    0.16773    0.52737   1.00
H1       1.04132    0.15343    0.54908   1.00
C2       0.99987    0.14561    0.50143   1.00
C5       0.96008    0.27121    0.58725   1.00
H2       0.96175    0.30162    0.59868   1.00
H2       0.98932    0.25734    0.59093   1.00
C5       0.93027    0.24878    0.61121   1.00
H2       0.92780    0.21871    0.59910   1.00
H2       0.90128    0.26309    0.60762   1.00
C5       0.94202    0.24746    0.65437   1.00
H2       0.94482    0.27740    0.66658   1.00
H2       0.97032    0.23197    0.65813   1.00
H2       0.91946    0.23170    0.67155   1.00
C5       1.08223    0.23895    0.53925   1.00
C5       0.91849    0.13930    0.45670   1.00
H2       1.07911    0.25912    0.51402   1.00
H2       1.09925    0.21288    0.52973   1.00
H2       0.90255    0.16700    0.46294   1.00
H2       0.91738    0.12105    0.48375   1.00
H2       0.88089    0.05945    0.44351   1.00
H2       1.13125    0.30750    0.53749   1.00
H2       1.15908    0.26234    0.53783   1.00
C2       0.99976    0.35395    0.50256   1.00
C3       1.02489    0.33403    0.47669   1.00
O2       1.05578    0.35326    0.45948   1.00
C3       0.97382    0.33174    0.52577   1.00
H1       0.95352    0.34615    0.54512   1.00
C3a      1.02429    0.29287    0.47533   1.00
H1       1.04524    0.27798    0.45702   1.00
C3b      0.97417    0.29078    0.52525   1.00
C4       0.99958    0.27100    0.49997   1.00
O_3      1.04550    0.22833    0.55452   1.00
C5       1.04668    0.36280    0.42048   1.00
H2       1.04014    0.33609    0.40299   1.00
C5       1.08245    0.38334    0.40334   1.00
H2       1.02102    0.38274    0.41905   1.00
H2       1.10433    0.36077    0.39512   1.00
H2       1.09585    0.40101    0.42711   1.00
C5       1.07250    0.40931    0.36796   1.00
H2       1.05641    0.39189    0.34585   1.00
H2       1.09955    0.42109    0.35434   1.00
H2       1.05450    0.43506    0.37678   1.00
C5       1.10459    0.25980    0.57148   1.00
H2       1.11354    0.23782    0.59369   1.00
H2       1.08428    0.28045    0.58625   1.00
C5       1.14029    0.28197    0.55560   1.00
H2       1.15809    0.29334    0.58020   1.00
C5       0.92260    0.39930    0.11773   1.00
H2       0.90734    0.42346    0.10245   1.00
H2       0.90124    0.38739    0.13901   1.00
C5       0.93437    0.36759    0.08781   1.00
H2       0.90921    0.34815    0.08110   1.00
H2       0.95876    0.34967    0.09960   1.00
O_3      1.04790    0.44793    0.27000   1.00
C4       0.99981    0.50040    0.22900   1.00
C3c      0.97368    0.47723    0.20757   1.00
H1       0.95292    0.45897    0.22275   1.00
C3d      1.02625    0.52441    0.20865   1.00
C3       0.97422    0.47677    0.16646   1.00
O2       0.94476    0.45712    0.14752   1.00
C3       1.02737    0.52346    0.16773   1.00
H1       1.04908    0.54132    0.15343   1.00
C2       1.00143    0.49987    0.14561   1.00
C5       1.08725    0.46008    0.27121   1.00
H2       1.09868    0.46175    0.30162   1.00
H2       1.09093    0.48932    0.25734   1.00
C5       1.11121    0.43027    0.24878   1.00
H2       1.09910    0.42780    0.21871   1.00
H2       1.10762    0.40128    0.26309   1.00
C5       1.15437    0.44202    0.24746   1.00
H2       1.16658    0.44482    0.27740   1.00
H2       1.15813    0.47032    0.23197   1.00
H2       1.17155    0.41946    0.23170   1.00
C5       1.03925    0.58223    0.23895   1.00
C5       0.95670    0.41849    0.13930   1.00
H2       1.01402    0.57911    0.25912   1.00
H2       1.02973    0.59925    0.21288   1.00
H2       0.96294    0.40255    0.16700   1.00
H2       0.98375    0.41738    0.12105   1.00
H2       0.94351    0.38089    0.05945   1.00
H2       1.03749    0.63125    0.30750   1.00
H2       1.03783    0.65908    0.26234   1.00
C2       1.00256    0.49976    0.35395   1.00
C3       0.97669    0.52489    0.33403   1.00
O2       0.95948    0.55578    0.35326   1.00
C3       1.02577    0.47382    0.33174   1.00
H1       1.04512    0.45352    0.34615   1.00
C3a      0.97533    0.52429    0.29287   1.00
H1       0.95702    0.54524    0.27798   1.00
C3b      1.02525    0.47417    0.29078   1.00
C4       0.99997    0.49958    0.27100   1.00
O_3      1.05452    0.54550    0.22833   1.00
C5       0.92048    0.54668    0.36280   1.00
H2       0.90299    0.54014    0.33609   1.00
C5       0.90334    0.58245    0.38334   1.00
H2       0.91905    0.52102    0.38274   1.00
H2       0.89512    0.60433    0.36077   1.00
H2       0.92711    0.59585    0.40101   1.00
C5       0.86796    0.57250    0.40931   1.00
H2       0.84585    0.55641    0.39189   1.00
H2       0.85434    0.59955    0.42109   1.00
H2       0.87678    0.55450    0.43506   1.00
C5       1.07148    0.60459    0.25980   1.00
H2       1.09369    0.61354    0.23782   1.00
H2       1.08625    0.58428    0.28045   1.00
C5       1.05560    0.64029    0.28197   1.00
H2       1.08020    0.65809    0.29334   1.00
