data_IRMOF10_SG202_interpen_Ligand1lp_label_c.

_audit_creation_method             'generated by an auxiliary program of Tobunporous'

_symmetry_space_group_name_H-M     'P 1'
_symmetry_Int_Tables_number        1
_symmetry_cell_setting             triclinic

_cell_length_a                    34.2800
_cell_length_b                    34.2800
_cell_length_c                    34.2800
_cell_angle_alpha                 90.0000
_cell_angle_beta                  90.0000
_cell_angle_gamma                 90.0000

loop_
_atom_site_label
_atom_site_fract_x
_atom_site_fract_y
_atom_site_fract_z
_atom_site_occupancy
O1       0.75000    0.75000    0.75000   1.00
Zn1      0.71720    0.78280    0.78280   1.00
Zn1      0.78280    0.71720    0.78280   1.00
Zn1      0.78280    0.78280    0.71720   1.00
Zn1      0.71720    0.71720    0.71720   1.00
O2       0.72650    0.77350    0.83820   1.00
O2       0.72650    0.83820    0.77350   1.00
O2       0.66180    0.77350    0.77350   1.00
O2       0.77350    0.72650    0.83820   1.00
O2       0.83820    0.72650    0.77350   1.00
O2       0.77350    0.66180    0.77350   1.00
O2       0.77350    0.83820    0.72650   1.00
O2       0.83820    0.77350    0.72650   1.00
O2       0.77350    0.77350    0.66180   1.00
O2       0.66180    0.72650    0.72650   1.00
O2       0.72650    0.66180    0.72650   1.00
O2       0.72650    0.72650    0.66180   1.00
C1       0.75000    0.75000    0.85520   1.00
C1       0.75000    0.85520    0.75000   1.00
C1       0.64480    0.75000    0.75000   1.00
C1       0.85520    0.75000    0.75000   1.00
C1       0.75000    0.64480    0.75000   1.00
C1       0.75000    0.75000    0.64480   1.00
O1       0.25000    0.25000    0.75000   1.00
Zn1      0.21720    0.28280    0.78280   1.00
Zn1      0.28280    0.21720    0.78280   1.00
Zn1      0.28280    0.28280    0.71720   1.00
Zn1      0.21720    0.21720    0.71720   1.00
O2       0.22650    0.27350    0.83820   1.00
O2       0.22650    0.33820    0.77350   1.00
O2       0.16180    0.27350    0.77350   1.00
O2       0.27350    0.22650    0.83820   1.00
O2       0.33820    0.22650    0.77350   1.00
O2       0.27350    0.16180    0.77350   1.00
O2       0.27350    0.33820    0.72650   1.00
O2       0.33820    0.27350    0.72650   1.00
O2       0.27350    0.27350    0.66180   1.00
O2       0.16180    0.22650    0.72650   1.00
O2       0.22650    0.16180    0.72650   1.00
O2       0.22650    0.22650    0.66180   1.00
C1       0.25000    0.25000    0.85520   1.00
C1       0.25000    0.35520    0.75000   1.00
C1       0.14480    0.25000    0.75000   1.00
C1       0.35520    0.25000    0.75000   1.00
C1       0.25000    0.14480    0.75000   1.00
C1       0.25000    0.25000    0.64480   1.00
O1       0.25000    0.75000    0.25000   1.00
Zn1      0.21720    0.78280    0.28280   1.00
Zn1      0.28280    0.71720    0.28280   1.00
Zn1      0.28280    0.78280    0.21720   1.00
Zn1      0.21720    0.71720    0.21720   1.00
O2       0.22650    0.77350    0.33820   1.00
O2       0.22650    0.83820    0.27350   1.00
O2       0.16180    0.77350    0.27350   1.00
O2       0.27350    0.72650    0.33820   1.00
O2       0.33820    0.72650    0.27350   1.00
O2       0.27350    0.66180    0.27350   1.00
O2       0.27350    0.83820    0.22650   1.00
O2       0.33820    0.77350    0.22650   1.00
O2       0.27350    0.77350    0.16180   1.00
O2       0.16180    0.72650    0.22650   1.00
O2       0.22650    0.66180    0.22650   1.00
O2       0.22650    0.72650    0.16180   1.00
C1       0.25000    0.75000    0.35520   1.00
C1       0.25000    0.85520    0.25000   1.00
C1       0.14480    0.75000    0.25000   1.00
C1       0.35520    0.75000    0.25000   1.00
C1       0.25000    0.64480    0.25000   1.00
C1       0.25000    0.75000    0.14480   1.00
O1       0.75000    0.25000    0.25000   1.00
Zn1      0.71720    0.28280    0.28280   1.00
Zn1      0.78280    0.21720    0.28280   1.00
Zn1      0.78280    0.28280    0.21720   1.00
Zn1      0.71720    0.21720    0.21720   1.00
O2       0.72650    0.27350    0.33820   1.00
O2       0.72650    0.33820    0.27350   1.00
O2       0.66180    0.27350    0.27350   1.00
O2       0.77350    0.22650    0.33820   1.00
O2       0.83820    0.22650    0.27350   1.00
O2       0.77350    0.16180    0.27350   1.00
O2       0.77350    0.33820    0.22650   1.00
O2       0.83820    0.27350    0.22650   1.00
O2       0.77350    0.27350    0.16180   1.00
O2       0.66180    0.22650    0.22650   1.00
O2       0.72650    0.16180    0.22650   1.00
O2       0.72650    0.22650    0.16180   1.00
C1       0.75000    0.25000    0.35520   1.00
C1       0.75000    0.35520    0.25000   1.00
C1       0.64480    0.25000    0.25000   1.00
C1       0.85520    0.25000    0.25000   1.00
C1       0.75000    0.14480    0.25000   1.00
C1       0.75000    0.25000    0.14480   1.00
O1       0.25000    0.25000    0.25000   1.00
Zn1      0.28280    0.21720    0.21720   1.00
Zn1      0.21720    0.28280    0.21720   1.00
Zn1      0.21720    0.21720    0.28280   1.00
Zn1      0.28280    0.28280    0.28280   1.00
O2       0.27350    0.22650    0.16180   1.00
O2       0.27350    0.16180    0.22650   1.00
O2       0.33820    0.22650    0.22650   1.00
O2       0.22650    0.27350    0.16180   1.00
O2       0.16180    0.27350    0.22650   1.00
O2       0.22650    0.33820    0.22650   1.00
O2       0.22650    0.16180    0.27350   1.00
O2       0.16180    0.22650    0.27350   1.00
O2       0.22650    0.22650    0.33820   1.00
O2       0.33820    0.27350    0.27350   1.00
O2       0.27350    0.33820    0.27350   1.00
O2       0.27350    0.27350    0.33820   1.00
C1       0.25000    0.25000    0.14480   1.00
C1       0.25000    0.14480    0.25000   1.00
C1       0.35520    0.25000    0.25000   1.00
C1       0.14480    0.25000    0.25000   1.00
C1       0.25000    0.35520    0.25000   1.00
C1       0.25000    0.25000    0.35520   1.00
O1       0.75000    0.75000    0.25000   1.00
Zn1      0.78280    0.71720    0.21720   1.00
Zn1      0.71720    0.78280    0.21720   1.00
Zn1      0.71720    0.71720    0.28280   1.00
Zn1      0.78280    0.78280    0.28280   1.00
O2       0.77350    0.72650    0.16180   1.00
O2       0.77350    0.66180    0.22650   1.00
O2       0.83820    0.72650    0.22650   1.00
O2       0.72650    0.77350    0.16180   1.00
O2       0.66180    0.77350    0.22650   1.00
O2       0.72650    0.83820    0.22650   1.00
O2       0.72650    0.66180    0.27350   1.00
O2       0.66180    0.72650    0.27350   1.00
O2       0.72650    0.72650    0.33820   1.00
O2       0.83820    0.77350    0.27350   1.00
O2       0.77350    0.83820    0.27350   1.00
O2       0.77350    0.77350    0.33820   1.00
C1       0.75000    0.75000    0.14480   1.00
C1       0.75000    0.64480    0.25000   1.00
C1       0.85520    0.75000    0.25000   1.00
C1       0.64480    0.75000    0.25000   1.00
C1       0.75000    0.85520    0.25000   1.00
C1       0.75000    0.75000    0.35520   1.00
O1       0.75000    0.25000    0.75000   1.00
Zn1      0.78280    0.21720    0.71720   1.00
Zn1      0.71720    0.28280    0.71720   1.00
Zn1      0.71720    0.21720    0.78280   1.00
Zn1      0.78280    0.28280    0.78280   1.00
O2       0.77350    0.22650    0.66180   1.00
O2       0.77350    0.16180    0.72650   1.00
O2       0.83820    0.22650    0.72650   1.00
O2       0.72650    0.27350    0.66180   1.00
O2       0.66180    0.27350    0.72650   1.00
O2       0.72650    0.33820    0.72650   1.00
O2       0.72650    0.16180    0.77350   1.00
O2       0.66180    0.22650    0.77350   1.00
O2       0.72650    0.22650    0.83820   1.00
O2       0.83820    0.27350    0.77350   1.00
O2       0.77350    0.33820    0.77350   1.00
O2       0.77350    0.27350    0.83820   1.00
C1       0.75000    0.25000    0.64480   1.00
C1       0.75000    0.14480    0.75000   1.00
C1       0.85520    0.25000    0.75000   1.00
C1       0.64480    0.25000    0.75000   1.00
C1       0.75000    0.35520    0.75000   1.00
C1       0.75000    0.25000    0.85520   1.00
O1       0.25000    0.75000    0.75000   1.00
Zn1      0.28280    0.71720    0.71720   1.00
Zn1      0.21720    0.78280    0.71720   1.00
Zn1      0.21720    0.71720    0.78280   1.00
Zn1      0.28280    0.78280    0.78280   1.00
O2       0.27350    0.72650    0.66180   1.00
O2       0.27350    0.66180    0.72650   1.00
O2       0.33820    0.72650    0.72650   1.00
O2       0.22650    0.77350    0.66180   1.00
O2       0.16180    0.77350    0.72650   1.00
O2       0.22650    0.83820    0.72650   1.00
O2       0.22650    0.66180    0.77350   1.00
O2       0.16180    0.72650    0.77350   1.00
O2       0.22650    0.72650    0.83820   1.00
O2       0.33820    0.77350    0.77350   1.00
O2       0.27350    0.83820    0.77350   1.00
O2       0.27350    0.77350    0.83820   1.00
C1       0.25000    0.75000    0.64480   1.00
C1       0.25000    0.64480    0.75000   1.00
C1       0.35520    0.75000    0.75000   1.00
C1       0.14480    0.75000    0.75000   1.00
C1       0.25000    0.85520    0.75000   1.00
C1       0.25000    0.75000    0.85520   1.00
O1       1.00000    1.00000    1.00000   1.00
Zn1      0.96720    1.03280    1.03280   1.00
Zn1      1.03280    0.96720    1.03280   1.00
Zn1      1.03280    1.03280    0.96720   1.00
Zn1      0.96720    0.96720    0.96720   1.00
O2       0.97650    1.02350    1.08820   1.00
O2       0.97650    1.08820    1.02350   1.00
O2       0.91180    1.02350    1.02350   1.00
O2       1.02350    0.97650    1.08820   1.00
O2       1.08820    0.97650    1.02350   1.00
O2       1.02350    0.91180    1.02350   1.00
O2       1.02350    1.08820    0.97650   1.00
O2       1.08820    1.02350    0.97650   1.00
O2       1.02350    1.02350    0.91180   1.00
O2       0.91180    0.97650    0.97650   1.00
O2       0.97650    0.91180    0.97650   1.00
O2       0.97650    0.97650    0.91180   1.00
C1       1.00000    1.00000    1.10520   1.00
C1       1.00000    1.10520    1.00000   1.00
C1       0.89480    1.00000    1.00000   1.00
C1       1.10520    1.00000    1.00000   1.00
C1       1.00000    0.89480    1.00000   1.00
C1       1.00000    1.00000    0.89480   1.00
O1       0.50000    0.50000    1.00000   1.00
Zn1      0.46720    0.53280    1.03280   1.00
Zn1      0.53280    0.46720    1.03280   1.00
Zn1      0.53280    0.53280    0.96720   1.00
Zn1      0.46720    0.46720    0.96720   1.00
O2       0.47650    0.52350    1.08820   1.00
O2       0.47650    0.58820    1.02350   1.00
O2       0.41180    0.52350    1.02350   1.00
O2       0.52350    0.47650    1.08820   1.00
O2       0.58820    0.47650    1.02350   1.00
O2       0.52350    0.41180    1.02350   1.00
O2       0.52350    0.58820    0.97650   1.00
O2       0.58820    0.52350    0.97650   1.00
O2       0.52350    0.52350    0.91180   1.00
O2       0.41180    0.47650    0.97650   1.00
O2       0.47650    0.41180    0.97650   1.00
O2       0.47650    0.47650    0.91180   1.00
C1       0.50000    0.50000    1.10520   1.00
C1       0.50000    0.60520    1.00000   1.00
C1       0.39480    0.50000    1.00000   1.00
C1       0.60520    0.50000    1.00000   1.00
C1       0.50000    0.39480    1.00000   1.00
C1       0.50000    0.50000    0.89480   1.00
O1       0.50000    1.00000    0.50000   1.00
Zn1      0.46720    1.03280    0.53280   1.00
Zn1      0.53280    0.96720    0.53280   1.00
Zn1      0.53280    1.03280    0.46720   1.00
Zn1      0.46720    0.96720    0.46720   1.00
O2       0.47650    1.02350    0.58820   1.00
O2       0.47650    1.08820    0.52350   1.00
O2       0.41180    1.02350    0.52350   1.00
O2       0.52350    0.97650    0.58820   1.00
O2       0.58820    0.97650    0.52350   1.00
O2       0.52350    0.91180    0.52350   1.00
O2       0.52350    1.08820    0.47650   1.00
O2       0.58820    1.02350    0.47650   1.00
O2       0.52350    1.02350    0.41180   1.00
O2       0.41180    0.97650    0.47650   1.00
O2       0.47650    0.91180    0.47650   1.00
O2       0.47650    0.97650    0.41180   1.00
C1       0.50000    1.00000    0.60520   1.00
C1       0.50000    1.10520    0.50000   1.00
C1       0.39480    1.00000    0.50000   1.00
C1       0.60520    1.00000    0.50000   1.00
C1       0.50000    0.89480    0.50000   1.00
C1       0.50000    1.00000    0.39480   1.00
O1       1.00000    0.50000    0.50000   1.00
Zn1      0.96720    0.53280    0.53280   1.00
Zn1      1.03280    0.46720    0.53280   1.00
Zn1      1.03280    0.53280    0.46720   1.00
Zn1      0.96720    0.46720    0.46720   1.00
O2       0.97650    0.52350    0.58820   1.00
O2       0.97650    0.58820    0.52350   1.00
O2       0.91180    0.52350    0.52350   1.00
O2       1.02350    0.47650    0.58820   1.00
O2       1.08820    0.47650    0.52350   1.00
O2       1.02350    0.41180    0.52350   1.00
O2       1.02350    0.58820    0.47650   1.00
O2       1.08820    0.52350    0.47650   1.00
O2       1.02350    0.52350    0.41180   1.00
O2       0.91180    0.47650    0.47650   1.00
O2       0.97650    0.41180    0.47650   1.00
O2       0.97650    0.47650    0.41180   1.00
C1       1.00000    0.50000    0.60520   1.00
C1       1.00000    0.60520    0.50000   1.00
C1       0.89480    0.50000    0.50000   1.00
C1       1.10520    0.50000    0.50000   1.00
C1       1.00000    0.39480    0.50000   1.00
C1       1.00000    0.50000    0.39480   1.00
O1       0.50000    0.50000    0.50000   1.00
Zn1      0.53280    0.46720    0.46720   1.00
Zn1      0.46720    0.53280    0.46720   1.00
Zn1      0.46720    0.46720    0.53280   1.00
Zn1      0.53280    0.53280    0.53280   1.00
O2       0.52350    0.47650    0.41180   1.00
O2       0.52350    0.41180    0.47650   1.00
O2       0.58820    0.47650    0.47650   1.00
O2       0.47650    0.52350    0.41180   1.00
O2       0.41180    0.52350    0.47650   1.00
O2       0.47650    0.58820    0.47650   1.00
O2       0.47650    0.41180    0.52350   1.00
O2       0.41180    0.47650    0.52350   1.00
O2       0.47650    0.47650    0.58820   1.00
O2       0.58820    0.52350    0.52350   1.00
O2       0.52350    0.58820    0.52350   1.00
O2       0.52350    0.52350    0.58820   1.00
C1       0.50000    0.50000    0.39480   1.00
C1       0.50000    0.39480    0.50000   1.00
C1       0.60520    0.50000    0.50000   1.00
C1       0.39480    0.50000    0.50000   1.00
C1       0.50000    0.60520    0.50000   1.00
C1       0.50000    0.50000    0.60520   1.00
O1       1.00000    1.00000    0.50000   1.00
Zn1      1.03280    0.96720    0.46720   1.00
Zn1      0.96720    1.03280    0.46720   1.00
Zn1      0.96720    0.96720    0.53280   1.00
Zn1      1.03280    1.03280    0.53280   1.00
O2       1.02350    0.97650    0.41180   1.00
O2       1.02350    0.91180    0.47650   1.00
O2       1.08820    0.97650    0.47650   1.00
O2       0.97650    1.02350    0.41180   1.00
O2       0.91180    1.02350    0.47650   1.00
O2       0.97650    1.08820    0.47650   1.00
O2       0.97650    0.91180    0.52350   1.00
O2       0.91180    0.97650    0.52350   1.00
O2       0.97650    0.97650    0.58820   1.00
O2       1.08820    1.02350    0.52350   1.00
O2       1.02350    1.08820    0.52350   1.00
O2       1.02350    1.02350    0.58820   1.00
C1       1.00000    1.00000    0.39480   1.00
C1       1.00000    0.89480    0.50000   1.00
C1       1.10520    1.00000    0.50000   1.00
C1       0.89480    1.00000    0.50000   1.00
C1       1.00000    1.10520    0.50000   1.00
C1       1.00000    1.00000    0.60520   1.00
O1       1.00000    0.50000    1.00000   1.00
Zn1      1.03280    0.46720    0.96720   1.00
Zn1      0.96720    0.53280    0.96720   1.00
Zn1      0.96720    0.46720    1.03280   1.00
Zn1      1.03280    0.53280    1.03280   1.00
O2       1.02350    0.47650    0.91180   1.00
O2       1.02350    0.41180    0.97650   1.00
O2       1.08820    0.47650    0.97650   1.00
O2       0.97650    0.52350    0.91180   1.00
O2       0.91180    0.52350    0.97650   1.00
O2       0.97650    0.58820    0.97650   1.00
O2       0.97650    0.41180    1.02350   1.00
O2       0.91180    0.47650    1.02350   1.00
O2       0.97650    0.47650    1.08820   1.00
O2       1.08820    0.52350    1.02350   1.00
O2       1.02350    0.58820    1.02350   1.00
O2       1.02350    0.52350    1.08820   1.00
C1       1.00000    0.50000    0.89480   1.00
C1       1.00000    0.39480    1.00000   1.00
C1       1.10520    0.50000    1.00000   1.00
C1       0.89480    0.50000    1.00000   1.00
C1       1.00000    0.60520    1.00000   1.00
C1       1.00000    0.50000    1.10520   1.00
O1       0.50000    1.00000    1.00000   1.00
Zn1      0.53280    0.96720    0.96720   1.00
Zn1      0.46720    1.03280    0.96720   1.00
Zn1      0.46720    0.96720    1.03280   1.00
Zn1      0.53280    1.03280    1.03280   1.00
O2       0.52350    0.97650    0.91180   1.00
O2       0.52350    0.91180    0.97650   1.00
O2       0.58820    0.97650    0.97650   1.00
O2       0.47650    1.02350    0.91180   1.00
O2       0.41180    1.02350    0.97650   1.00
O2       0.47650    1.08820    0.97650   1.00
O2       0.47650    0.91180    1.02350   1.00
O2       0.41180    0.97650    1.02350   1.00
O2       0.47650    0.97650    1.08820   1.00
O2       0.58820    1.02350    1.02350   1.00
O2       0.52350    1.08820    1.02350   1.00
O2       0.52350    1.02350    1.08820   1.00
C1       0.50000    1.00000    0.89480   1.00
C1       0.50000    0.89480    1.00000   1.00
C1       0.60520    1.00000    1.00000   1.00
C1       0.39480    1.00000    1.00000   1.00
C1       0.50000    1.10520    1.00000   1.00
C1       0.50000    1.00000    1.10520   1.00
C2       0.74792    0.75215    0.89757   1.00
C3a      0.73955    0.78605    0.91884   1.00
H1       0.73244    0.81290    0.90369   1.00
C3a      0.75713    0.71740    0.91704   1.00
H1       0.76359    0.69121    0.90051   1.00
C3b      0.74027    0.78558    0.95938   1.00
C5       0.73112    0.82254    0.98144   1.00
H2       0.75637    0.83101    0.99984   1.00
H2       0.72449    0.84728    0.96161   1.00
H2       0.70545    0.81795    1.00060   1.00
C3b      0.75804    0.71617    0.95756   1.00
C5       0.76805    0.67832    0.97767   1.00
H2       0.74356    0.66906    0.99670   1.00
H2       0.77386    0.65444    0.95655   1.00
H2       0.79448    0.68212    0.99594   1.00
C4       0.74957    0.75045    0.97873   1.00
C4       0.75043    0.74955    1.02127   1.00
C3b      0.78555    0.75803    1.04101   1.00
C5       0.82254    0.76806    1.01937   1.00
H2       0.81797    0.79451    1.00129   1.00
H2       0.84726    0.77387    1.03949   1.00
H2       0.83101    0.74360    0.99995   1.00
C3b      0.71613    0.74023    1.04204   1.00
C5       0.67829    0.73108    1.02152   1.00
H2       0.68210    0.70542    1.00217   1.00
H2       0.65440    0.72441    1.04235   1.00
H2       0.66906    0.75633    1.00350   1.00
C3a      0.78599    0.75708    1.08155   1.00
H1       0.81283    0.76355    1.09700   1.00
C3a      0.71733    0.73947    1.08257   1.00
H1       0.69113    0.73234    1.09881   1.00
C2       0.75208    0.74785    1.10243   1.00
C2       0.75215    0.89757    0.74792   1.00
C3a      0.78605    0.91884    0.73955   1.00
H1       0.81290    0.90369    0.73244   1.00
C3a      0.71740    0.91704    0.75713   1.00
H1       0.69121    0.90051    0.76359   1.00
C3b      0.78558    0.95938    0.74027   1.00
C5       0.82254    0.98144    0.73112   1.00
H2       0.83101    0.99984    0.75637   1.00
H2       0.84728    0.96161    0.72449   1.00
H2       0.81795    1.00060    0.70545   1.00
C3b      0.71617    0.95756    0.75804   1.00
C5       0.67832    0.97767    0.76805   1.00
H2       0.66906    0.99670    0.74356   1.00
H2       0.65444    0.95655    0.77386   1.00
H2       0.68212    0.99594    0.79448   1.00
C4       0.75045    0.97873    0.74957   1.00
C4       0.74955    1.02127    0.75043   1.00
C3b      0.75803    1.04101    0.78555   1.00
C5       0.76806    1.01937    0.82254   1.00
H2       0.79451    1.00129    0.81797   1.00
H2       0.77387    1.03949    0.84726   1.00
H2       0.74360    0.99995    0.83101   1.00
C3b      0.74023    1.04204    0.71613   1.00
C5       0.73108    1.02152    0.67829   1.00
H2       0.70542    1.00217    0.68210   1.00
H2       0.72441    1.04235    0.65440   1.00
H2       0.75633    1.00350    0.66906   1.00
C3a      0.75708    1.08155    0.78599   1.00
H1       0.76355    1.09700    0.81283   1.00
C3a      0.73947    1.08257    0.71733   1.00
H1       0.73234    1.09881    0.69113   1.00
C2       0.74785    1.10243    0.75208   1.00
C2       0.60243    0.74792    0.74785   1.00
C3a      0.58116    0.73955    0.71395   1.00
H1       0.59631    0.73244    0.68710   1.00
C3a      0.58296    0.75713    0.78260   1.00
H1       0.59949    0.76359    0.80879   1.00
C3b      0.54062    0.74027    0.71442   1.00
C5       0.51856    0.73112    0.67746   1.00
H2       0.50016    0.75637    0.66899   1.00
H2       0.53839    0.72449    0.65272   1.00
H2       0.49940    0.70545    0.68205   1.00
C3b      0.54244    0.75804    0.78383   1.00
C5       0.52233    0.76805    0.82168   1.00
H2       0.50330    0.74356    0.83094   1.00
H2       0.54345    0.77386    0.84556   1.00
H2       0.50406    0.79448    0.81788   1.00
C4       0.52127    0.74957    0.74955   1.00
C4       0.47873    0.75043    0.75045   1.00
C3b      0.45899    0.78555    0.74197   1.00
C5       0.48063    0.82254    0.73194   1.00
H2       0.49871    0.81797    0.70549   1.00
H2       0.46051    0.84726    0.72613   1.00
H2       0.50005    0.83101    0.75640   1.00
C3b      0.45796    0.71613    0.75977   1.00
C5       0.47848    0.67829    0.76892   1.00
H2       0.49783    0.68210    0.79458   1.00
H2       0.45765    0.65440    0.77559   1.00
H2       0.49650    0.66906    0.74367   1.00
C3a      0.41845    0.78599    0.74292   1.00
H1       0.40300    0.81283    0.73645   1.00
C3a      0.41743    0.71733    0.76053   1.00
H1       0.40119    0.69113    0.76766   1.00
C2       0.39757    0.75208    0.75215   1.00
C2       0.89757    0.74792    0.75215   1.00
C3a      0.91884    0.73955    0.78605   1.00
H1       0.90369    0.73244    0.81290   1.00
C3a      0.91704    0.75713    0.71740   1.00
H1       0.90051    0.76359    0.69121   1.00
C3b      0.95938    0.74027    0.78558   1.00
C5       0.98144    0.73112    0.82254   1.00
H2       0.99984    0.75637    0.83101   1.00
H2       0.96161    0.72449    0.84728   1.00
H2       1.00060    0.70545    0.81795   1.00
C3b      0.95756    0.75804    0.71617   1.00
C5       0.97767    0.76805    0.67832   1.00
H2       0.99670    0.74356    0.66906   1.00
H2       0.95655    0.77386    0.65444   1.00
H2       0.99594    0.79448    0.68212   1.00
C4       0.97873    0.74957    0.75045   1.00
C4       1.02127    0.75043    0.74955   1.00
C3b      1.04101    0.78555    0.75803   1.00
C5       1.01937    0.82254    0.76806   1.00
H2       1.00129    0.81797    0.79451   1.00
H2       1.03949    0.84726    0.77387   1.00
H2       0.99995    0.83101    0.74360   1.00
C3b      1.04204    0.71613    0.74023   1.00
C5       1.02152    0.67829    0.73108   1.00
H2       1.00217    0.68210    0.70542   1.00
H2       1.04235    0.65440    0.72441   1.00
H2       1.00350    0.66906    0.75633   1.00
C3a      1.08155    0.78599    0.75708   1.00
H1       1.09700    0.81283    0.76355   1.00
C3a      1.08257    0.71733    0.73947   1.00
H1       1.09881    0.69113    0.73234   1.00
C2       1.10243    0.75208    0.74785   1.00
C2       0.74785    0.60243    0.74792   1.00
C3a      0.71395    0.58116    0.73955   1.00
H1       0.68710    0.59631    0.73244   1.00
C3a      0.78260    0.58296    0.75713   1.00
H1       0.80879    0.59949    0.76359   1.00
C3b      0.71442    0.54062    0.74027   1.00
C5       0.67746    0.51856    0.73112   1.00
H2       0.66899    0.50016    0.75637   1.00
H2       0.65272    0.53839    0.72449   1.00
H2       0.68205    0.49940    0.70545   1.00
C3b      0.78383    0.54244    0.75804   1.00
C5       0.82168    0.52233    0.76805   1.00
H2       0.83094    0.50330    0.74356   1.00
H2       0.84556    0.54345    0.77386   1.00
H2       0.81788    0.50406    0.79448   1.00
C4       0.74955    0.52127    0.74957   1.00
C4       0.75045    0.47873    0.75043   1.00
C3b      0.74197    0.45899    0.78555   1.00
C5       0.73194    0.48063    0.82254   1.00
H2       0.70549    0.49871    0.81797   1.00
H2       0.72613    0.46051    0.84726   1.00
H2       0.75640    0.50005    0.83101   1.00
C3b      0.75977    0.45796    0.71613   1.00
C5       0.76892    0.47848    0.67829   1.00
H2       0.79458    0.49783    0.68210   1.00
H2       0.77559    0.45765    0.65440   1.00
H2       0.74367    0.49650    0.66906   1.00
C3a      0.74292    0.41845    0.78599   1.00
H1       0.73645    0.40300    0.81283   1.00
C3a      0.76053    0.41743    0.71733   1.00
H1       0.76766    0.40119    0.69113   1.00
C2       0.75215    0.39757    0.75208   1.00
C2       0.74792    0.74785    0.60243   1.00
C3a      0.73955    0.71395    0.58116   1.00
H1       0.73244    0.68710    0.59631   1.00
C3a      0.75713    0.78260    0.58296   1.00
H1       0.76359    0.80879    0.59949   1.00
C3b      0.74027    0.71442    0.54062   1.00
C5       0.73112    0.67746    0.51856   1.00
H2       0.75637    0.66899    0.50016   1.00
H2       0.72449    0.65272    0.53839   1.00
H2       0.70545    0.68205    0.49940   1.00
C3b      0.75804    0.78383    0.54244   1.00
C5       0.76805    0.82168    0.52233   1.00
H2       0.74356    0.83094    0.50330   1.00
H2       0.77386    0.84556    0.54345   1.00
H2       0.79448    0.81788    0.50406   1.00
C4       0.74957    0.74955    0.52127   1.00
C4       0.75043    0.75045    0.47873   1.00
C3b      0.78555    0.74197    0.45899   1.00
C5       0.82254    0.73194    0.48063   1.00
H2       0.81797    0.70549    0.49871   1.00
H2       0.84726    0.72613    0.46051   1.00
H2       0.83101    0.75640    0.50005   1.00
C3b      0.71613    0.75977    0.45796   1.00
C5       0.67829    0.76892    0.47848   1.00
H2       0.68210    0.79458    0.49783   1.00
H2       0.65440    0.77559    0.45765   1.00
H2       0.66906    0.74367    0.49650   1.00
C3a      0.78599    0.74292    0.41845   1.00
H1       0.81283    0.73645    0.40300   1.00
C3a      0.71733    0.76053    0.41743   1.00
H1       0.69113    0.76766    0.40119   1.00
C2       0.75208    0.75215    0.39757   1.00
C2       0.24792    0.25215    0.89757   1.00
C3a      0.23955    0.28605    0.91884   1.00
H1       0.23244    0.31290    0.90369   1.00
C3a      0.25713    0.21740    0.91704   1.00
H1       0.26359    0.19121    0.90051   1.00
C3b      0.24027    0.28558    0.95938   1.00
C5       0.23112    0.32254    0.98144   1.00
H2       0.25637    0.33101    0.99984   1.00
H2       0.22449    0.34728    0.96161   1.00
H2       0.20545    0.31795    1.00060   1.00
C3b      0.25804    0.21617    0.95756   1.00
C5       0.26805    0.17832    0.97767   1.00
H2       0.24356    0.16906    0.99670   1.00
H2       0.27386    0.15444    0.95655   1.00
H2       0.29448    0.18212    0.99594   1.00
C4       0.24957    0.25045    0.97873   1.00
C4       0.25043    0.24955    1.02127   1.00
C3b      0.28555    0.25803    1.04101   1.00
C5       0.32254    0.26806    1.01937   1.00
H2       0.31797    0.29451    1.00129   1.00
H2       0.34726    0.27387    1.03949   1.00
H2       0.33101    0.24360    0.99995   1.00
C3b      0.21613    0.24023    1.04204   1.00
C5       0.17829    0.23108    1.02152   1.00
H2       0.18210    0.20542    1.00217   1.00
H2       0.15440    0.22441    1.04235   1.00
H2       0.16906    0.25633    1.00350   1.00
C3a      0.28599    0.25708    1.08155   1.00
H1       0.31283    0.26355    1.09700   1.00
C3a      0.21733    0.23947    1.08257   1.00
H1       0.19113    0.23234    1.09881   1.00
C2       0.25208    0.24785    1.10243   1.00
C2       0.25215    0.39757    0.74792   1.00
C3a      0.28605    0.41884    0.73955   1.00
H1       0.31290    0.40369    0.73244   1.00
C3a      0.21740    0.41704    0.75713   1.00
H1       0.19121    0.40051    0.76359   1.00
C3b      0.28558    0.45938    0.74027   1.00
C5       0.32254    0.48144    0.73112   1.00
H2       0.33101    0.49984    0.75637   1.00
H2       0.34728    0.46161    0.72449   1.00
H2       0.31795    0.50060    0.70545   1.00
C3b      0.21617    0.45756    0.75804   1.00
C5       0.17832    0.47767    0.76805   1.00
H2       0.16906    0.49670    0.74356   1.00
H2       0.15444    0.45655    0.77386   1.00
H2       0.18212    0.49594    0.79448   1.00
C4       0.25045    0.47873    0.74957   1.00
C4       0.24955    0.52127    0.75043   1.00
C3b      0.25803    0.54101    0.78555   1.00
C5       0.26806    0.51937    0.82254   1.00
H2       0.29451    0.50129    0.81797   1.00
H2       0.27387    0.53949    0.84726   1.00
H2       0.24360    0.49995    0.83101   1.00
C3b      0.24023    0.54204    0.71613   1.00
C5       0.23108    0.52152    0.67829   1.00
H2       0.20542    0.50217    0.68210   1.00
H2       0.22441    0.54235    0.65440   1.00
H2       0.25633    0.50350    0.66906   1.00
C3a      0.25708    0.58155    0.78599   1.00
H1       0.26355    0.59700    0.81283   1.00
C3a      0.23947    0.58257    0.71733   1.00
H1       0.23234    0.59881    0.69113   1.00
C2       0.24785    0.60243    0.75208   1.00
C2       0.10243    0.24792    0.74785   1.00
C3a      0.08116    0.23955    0.71395   1.00
H1       0.09631    0.23244    0.68710   1.00
C3a      0.08296    0.25713    0.78260   1.00
H1       0.09949    0.26359    0.80879   1.00
C3b      0.04062    0.24027    0.71442   1.00
C5       0.01856    0.23112    0.67746   1.00
H2       0.00016    0.25637    0.66899   1.00
H2       0.03839    0.22449    0.65272   1.00
H2       -0.00060   0.20545    0.68205   1.00
C3b      0.04244    0.25804    0.78383   1.00
C5       0.02233    0.26805    0.82168   1.00
H2       0.00330    0.24356    0.83094   1.00
H2       0.04345    0.27386    0.84556   1.00
H2       0.00406    0.29448    0.81788   1.00
C4       0.02127    0.24957    0.74955   1.00
C4       -0.02127   0.25043    0.75045   1.00
C3b      -0.04101   0.28555    0.74197   1.00
C5       -0.01937   0.32254    0.73194   1.00
H2       -0.00129   0.31797    0.70549   1.00
H2       -0.03949   0.34726    0.72613   1.00
H2       0.00005    0.33101    0.75640   1.00
C3b      -0.04204   0.21613    0.75977   1.00
C5       -0.02152   0.17829    0.76892   1.00
H2       -0.00217   0.18210    0.79458   1.00
H2       -0.04235   0.15440    0.77559   1.00
H2       -0.00350   0.16906    0.74367   1.00
C3a      -0.08155   0.28599    0.74292   1.00
H1       -0.09700   0.31283    0.73645   1.00
C3a      -0.08257   0.21733    0.76053   1.00
H1       -0.09881   0.19113    0.76766   1.00
C2       -0.10243   0.25208    0.75215   1.00
C2       0.39757    0.24792    0.75215   1.00
C3a      0.41884    0.23955    0.78605   1.00
H1       0.40369    0.23244    0.81290   1.00
C3a      0.41704    0.25713    0.71740   1.00
H1       0.40051    0.26359    0.69121   1.00
C3b      0.45938    0.24027    0.78558   1.00
C5       0.48144    0.23112    0.82254   1.00
H2       0.49984    0.25637    0.83101   1.00
H2       0.46161    0.22449    0.84728   1.00
H2       0.50060    0.20545    0.81795   1.00
C3b      0.45756    0.25804    0.71617   1.00
C5       0.47767    0.26805    0.67832   1.00
H2       0.49670    0.24356    0.66906   1.00
H2       0.45655    0.27386    0.65444   1.00
H2       0.49594    0.29448    0.68212   1.00
C4       0.47873    0.24957    0.75045   1.00
C4       0.52127    0.25043    0.74955   1.00
C3b      0.54101    0.28555    0.75803   1.00
C5       0.51937    0.32254    0.76806   1.00
H2       0.50129    0.31797    0.79451   1.00
H2       0.53949    0.34726    0.77387   1.00
H2       0.49995    0.33101    0.74360   1.00
C3b      0.54204    0.21613    0.74023   1.00
C5       0.52152    0.17829    0.73108   1.00
H2       0.50217    0.18210    0.70542   1.00
H2       0.54235    0.15440    0.72441   1.00
H2       0.50350    0.16906    0.75633   1.00
C3a      0.58155    0.28599    0.75708   1.00
H1       0.59700    0.31283    0.76355   1.00
C3a      0.58257    0.21733    0.73947   1.00
H1       0.59881    0.19113    0.73234   1.00
C2       0.60243    0.25208    0.74785   1.00
C2       0.24785    0.10243    0.74792   1.00
C3a      0.21395    0.08116    0.73955   1.00
H1       0.18710    0.09631    0.73244   1.00
C3a      0.28260    0.08296    0.75713   1.00
H1       0.30879    0.09949    0.76359   1.00
C3b      0.21442    0.04062    0.74027   1.00
C5       0.17746    0.01856    0.73112   1.00
H2       0.16899    0.00016    0.75637   1.00
H2       0.15272    0.03839    0.72449   1.00
H2       0.18205    -0.00060   0.70545   1.00
C3b      0.28383    0.04244    0.75804   1.00
C5       0.32168    0.02233    0.76805   1.00
H2       0.33094    0.00330    0.74356   1.00
H2       0.34556    0.04345    0.77386   1.00
H2       0.31788    0.00406    0.79448   1.00
C4       0.24955    0.02127    0.74957   1.00
C4       0.25045    -0.02127   0.75043   1.00
C3b      0.24197    -0.04101   0.78555   1.00
C5       0.23194    -0.01937   0.82254   1.00
H2       0.20549    -0.00129   0.81797   1.00
H2       0.22613    -0.03949   0.84726   1.00
H2       0.25640    0.00005    0.83101   1.00
C3b      0.25977    -0.04204   0.71613   1.00
C5       0.26892    -0.02152   0.67829   1.00
H2       0.29458    -0.00217   0.68210   1.00
H2       0.27559    -0.04235   0.65440   1.00
H2       0.24367    -0.00350   0.66906   1.00
C3a      0.24292    -0.08155   0.78599   1.00
H1       0.23645    -0.09700   0.81283   1.00
C3a      0.26053    -0.08257   0.71733   1.00
H1       0.26766    -0.09881   0.69113   1.00
C2       0.25215    -0.10243   0.75208   1.00
C2       0.24792    0.24785    0.60243   1.00
C3a      0.23955    0.21395    0.58116   1.00
H1       0.23244    0.18710    0.59631   1.00
C3a      0.25713    0.28260    0.58296   1.00
H1       0.26359    0.30879    0.59949   1.00
C3b      0.24027    0.21442    0.54062   1.00
C5       0.23112    0.17746    0.51856   1.00
H2       0.25637    0.16899    0.50016   1.00
H2       0.22449    0.15272    0.53839   1.00
H2       0.20545    0.18205    0.49940   1.00
C3b      0.25804    0.28383    0.54244   1.00
C5       0.26805    0.32168    0.52233   1.00
H2       0.24356    0.33094    0.50330   1.00
H2       0.27386    0.34556    0.54345   1.00
H2       0.29448    0.31788    0.50406   1.00
C4       0.24957    0.24955    0.52127   1.00
C4       0.25043    0.25045    0.47873   1.00
C3b      0.28555    0.24197    0.45899   1.00
C5       0.32254    0.23194    0.48063   1.00
H2       0.31797    0.20549    0.49871   1.00
H2       0.34726    0.22613    0.46051   1.00
H2       0.33101    0.25640    0.50005   1.00
C3b      0.21613    0.25977    0.45796   1.00
C5       0.17829    0.26892    0.47848   1.00
H2       0.18210    0.29458    0.49783   1.00
H2       0.15440    0.27559    0.45765   1.00
H2       0.16906    0.24367    0.49650   1.00
C3a      0.28599    0.24292    0.41845   1.00
H1       0.31283    0.23645    0.40300   1.00
C3a      0.21733    0.26053    0.41743   1.00
H1       0.19113    0.26766    0.40119   1.00
C2       0.25208    0.25215    0.39757   1.00
C2       0.24792    0.75215    0.39757   1.00
C3a      0.23955    0.78605    0.41884   1.00
H1       0.23244    0.81290    0.40369   1.00
C3a      0.25713    0.71740    0.41704   1.00
H1       0.26359    0.69121    0.40051   1.00
C3b      0.24027    0.78558    0.45938   1.00
C5       0.23112    0.82254    0.48144   1.00
H2       0.25637    0.83101    0.49984   1.00
H2       0.22449    0.84728    0.46161   1.00
H2       0.20545    0.81795    0.50060   1.00
C3b      0.25804    0.71617    0.45756   1.00
C5       0.26805    0.67832    0.47767   1.00
H2       0.24356    0.66906    0.49670   1.00
H2       0.27386    0.65444    0.45655   1.00
H2       0.29448    0.68212    0.49594   1.00
C4       0.24957    0.75045    0.47873   1.00
C4       0.25043    0.74955    0.52127   1.00
C3b      0.28555    0.75803    0.54101   1.00
C5       0.32254    0.76806    0.51937   1.00
H2       0.31797    0.79451    0.50129   1.00
H2       0.34726    0.77387    0.53949   1.00
H2       0.33101    0.74360    0.49995   1.00
C3b      0.21613    0.74023    0.54204   1.00
C5       0.17829    0.73108    0.52152   1.00
H2       0.18210    0.70542    0.50217   1.00
H2       0.15440    0.72441    0.54235   1.00
H2       0.16906    0.75633    0.50350   1.00
C3a      0.28599    0.75708    0.58155   1.00
H1       0.31283    0.76355    0.59700   1.00
C3a      0.21733    0.73947    0.58257   1.00
H1       0.19113    0.73234    0.59881   1.00
C2       0.25208    0.74785    0.60243   1.00
C2       0.25215    0.89757    0.24792   1.00
C3a      0.28605    0.91884    0.23955   1.00
H1       0.31290    0.90369    0.23244   1.00
C3a      0.21740    0.91704    0.25713   1.00
H1       0.19121    0.90051    0.26359   1.00
C3b      0.28558    0.95938    0.24027   1.00
C5       0.32254    0.98144    0.23112   1.00
H2       0.33101    0.99984    0.25637   1.00
H2       0.34728    0.96161    0.22449   1.00
H2       0.31795    1.00060    0.20545   1.00
C3b      0.21617    0.95756    0.25804   1.00
C5       0.17832    0.97767    0.26805   1.00
H2       0.16906    0.99670    0.24356   1.00
H2       0.15444    0.95655    0.27386   1.00
H2       0.18212    0.99594    0.29448   1.00
C4       0.25045    0.97873    0.24957   1.00
C4       0.24955    1.02127    0.25043   1.00
C3b      0.25803    1.04101    0.28555   1.00
C5       0.26806    1.01937    0.32254   1.00
H2       0.29451    1.00129    0.31797   1.00
H2       0.27387    1.03949    0.34726   1.00
H2       0.24360    0.99995    0.33101   1.00
C3b      0.24023    1.04204    0.21613   1.00
C5       0.23108    1.02152    0.17829   1.00
H2       0.20542    1.00217    0.18210   1.00
H2       0.22441    1.04235    0.15440   1.00
H2       0.25633    1.00350    0.16906   1.00
C3a      0.25708    1.08155    0.28599   1.00
H1       0.26355    1.09700    0.31283   1.00
C3a      0.23947    1.08257    0.21733   1.00
H1       0.23234    1.09881    0.19113   1.00
C2       0.24785    1.10243    0.25208   1.00
C2       0.10243    0.74792    0.24785   1.00
C3a      0.08116    0.73955    0.21395   1.00
H1       0.09631    0.73244    0.18710   1.00
C3a      0.08296    0.75713    0.28260   1.00
H1       0.09949    0.76359    0.30879   1.00
C3b      0.04062    0.74027    0.21442   1.00
C5       0.01856    0.73112    0.17746   1.00
H2       0.00016    0.75637    0.16899   1.00
H2       0.03839    0.72449    0.15272   1.00
H2       -0.00060   0.70545    0.18205   1.00
C3b      0.04244    0.75804    0.28383   1.00
C5       0.02233    0.76805    0.32168   1.00
H2       0.00330    0.74356    0.33094   1.00
H2       0.04345    0.77386    0.34556   1.00
H2       0.00406    0.79448    0.31788   1.00
C4       0.02127    0.74957    0.24955   1.00
C4       -0.02127   0.75043    0.25045   1.00
C3b      -0.04101   0.78555    0.24197   1.00
C5       -0.01937   0.82254    0.23194   1.00
H2       -0.00129   0.81797    0.20549   1.00
H2       -0.03949   0.84726    0.22613   1.00
H2       0.00005    0.83101    0.25640   1.00
C3b      -0.04204   0.71613    0.25977   1.00
C5       -0.02152   0.67829    0.26892   1.00
H2       -0.00217   0.68210    0.29458   1.00
H2       -0.04235   0.65440    0.27559   1.00
H2       -0.00350   0.66906    0.24367   1.00
C3a      -0.08155   0.78599    0.24292   1.00
H1       -0.09700   0.81283    0.23645   1.00
C3a      -0.08257   0.71733    0.26053   1.00
H1       -0.09881   0.69113    0.26766   1.00
C2       -0.10243   0.75208    0.25215   1.00
C2       0.39757    0.74792    0.25215   1.00
C3a      0.41884    0.73955    0.28605   1.00
H1       0.40369    0.73244    0.31290   1.00
C3a      0.41704    0.75713    0.21740   1.00
H1       0.40051    0.76359    0.19121   1.00
C3b      0.45938    0.74027    0.28558   1.00
C5       0.48144    0.73112    0.32254   1.00
H2       0.49984    0.75637    0.33101   1.00
H2       0.46161    0.72449    0.34728   1.00
H2       0.50060    0.70545    0.31795   1.00
C3b      0.45756    0.75804    0.21617   1.00
C5       0.47767    0.76805    0.17832   1.00
H2       0.49670    0.74356    0.16906   1.00
H2       0.45655    0.77386    0.15444   1.00
H2       0.49594    0.79448    0.18212   1.00
C4       0.47873    0.74957    0.25045   1.00
C4       0.52127    0.75043    0.24955   1.00
C3b      0.54101    0.78555    0.25803   1.00
C5       0.51937    0.82254    0.26806   1.00
H2       0.50129    0.81797    0.29451   1.00
H2       0.53949    0.84726    0.27387   1.00
H2       0.49995    0.83101    0.24360   1.00
C3b      0.54204    0.71613    0.24023   1.00
C5       0.52152    0.67829    0.23108   1.00
H2       0.50217    0.68210    0.20542   1.00
H2       0.54235    0.65440    0.22441   1.00
H2       0.50350    0.66906    0.25633   1.00
C3a      0.58155    0.78599    0.25708   1.00
H1       0.59700    0.81283    0.26355   1.00
C3a      0.58257    0.71733    0.23947   1.00
H1       0.59881    0.69113    0.23234   1.00
C2       0.60243    0.75208    0.24785   1.00
C2       0.24785    0.60243    0.24792   1.00
C3a      0.21395    0.58116    0.23955   1.00
H1       0.18710    0.59631    0.23244   1.00
C3a      0.28260    0.58296    0.25713   1.00
H1       0.30879    0.59949    0.26359   1.00
C3b      0.21442    0.54062    0.24027   1.00
C5       0.17746    0.51856    0.23112   1.00
H2       0.16899    0.50016    0.25637   1.00
H2       0.15272    0.53839    0.22449   1.00
H2       0.18205    0.49940    0.20545   1.00
C3b      0.28383    0.54244    0.25804   1.00
C5       0.32168    0.52233    0.26805   1.00
H2       0.33094    0.50330    0.24356   1.00
H2       0.34556    0.54345    0.27386   1.00
H2       0.31788    0.50406    0.29448   1.00
C4       0.24955    0.52127    0.24957   1.00
C4       0.25045    0.47873    0.25043   1.00
C3b      0.24197    0.45899    0.28555   1.00
C5       0.23194    0.48063    0.32254   1.00
H2       0.20549    0.49871    0.31797   1.00
H2       0.22613    0.46051    0.34726   1.00
H2       0.25640    0.50005    0.33101   1.00
C3b      0.25977    0.45796    0.21613   1.00
C5       0.26892    0.47848    0.17829   1.00
H2       0.29458    0.49783    0.18210   1.00
H2       0.27559    0.45765    0.15440   1.00
H2       0.24367    0.49650    0.16906   1.00
C3a      0.24292    0.41845    0.28599   1.00
H1       0.23645    0.40300    0.31283   1.00
C3a      0.26053    0.41743    0.21733   1.00
H1       0.26766    0.40119    0.19113   1.00
C2       0.25215    0.39757    0.25208   1.00
C2       0.24792    0.74785    0.10243   1.00
C3a      0.23955    0.71395    0.08116   1.00
H1       0.23244    0.68710    0.09631   1.00
C3a      0.25713    0.78260    0.08296   1.00
H1       0.26359    0.80879    0.09949   1.00
C3b      0.24027    0.71442    0.04062   1.00
C5       0.23112    0.67746    0.01856   1.00
H2       0.25637    0.66899    0.00016   1.00
H2       0.22449    0.65272    0.03839   1.00
H2       0.20545    0.68205    -0.00060   1.00
C3b      0.25804    0.78383    0.04244   1.00
C5       0.26805    0.82168    0.02233   1.00
H2       0.24356    0.83094    0.00330   1.00
H2       0.27386    0.84556    0.04345   1.00
H2       0.29448    0.81788    0.00406   1.00
C4       0.24957    0.74955    0.02127   1.00
C4       0.25043    0.75045    -0.02127   1.00
C3b      0.28555    0.74197    -0.04101   1.00
C5       0.32254    0.73194    -0.01937   1.00
H2       0.31797    0.70549    -0.00129   1.00
H2       0.34726    0.72613    -0.03949   1.00
H2       0.33101    0.75640    0.00005   1.00
C3b      0.21613    0.75977    -0.04204   1.00
C5       0.17829    0.76892    -0.02152   1.00
H2       0.18210    0.79458    -0.00217   1.00
H2       0.15440    0.77559    -0.04235   1.00
H2       0.16906    0.74367    -0.00350   1.00
C3a      0.28599    0.74292    -0.08155   1.00
H1       0.31283    0.73645    -0.09700   1.00
C3a      0.21733    0.76053    -0.08257   1.00
H1       0.19113    0.76766    -0.09881   1.00
C2       0.25208    0.75215    -0.10243   1.00
C2       0.74792    0.25215    0.39757   1.00
C3a      0.73955    0.28605    0.41884   1.00
H1       0.73244    0.31290    0.40369   1.00
C3a      0.75713    0.21740    0.41704   1.00
H1       0.76359    0.19121    0.40051   1.00
C3b      0.74027    0.28558    0.45938   1.00
C5       0.73112    0.32254    0.48144   1.00
H2       0.75637    0.33101    0.49984   1.00
H2       0.72449    0.34728    0.46161   1.00
H2       0.70545    0.31795    0.50060   1.00
C3b      0.75804    0.21617    0.45756   1.00
C5       0.76805    0.17832    0.47767   1.00
H2       0.74356    0.16906    0.49670   1.00
H2       0.77386    0.15444    0.45655   1.00
H2       0.79448    0.18212    0.49594   1.00
C4       0.74957    0.25045    0.47873   1.00
C4       0.75043    0.24955    0.52127   1.00
C3b      0.78555    0.25803    0.54101   1.00
C5       0.82254    0.26806    0.51937   1.00
H2       0.81797    0.29451    0.50129   1.00
H2       0.84726    0.27387    0.53949   1.00
H2       0.83101    0.24360    0.49995   1.00
C3b      0.71613    0.24023    0.54204   1.00
C5       0.67829    0.23108    0.52152   1.00
H2       0.68210    0.20542    0.50217   1.00
H2       0.65440    0.22441    0.54235   1.00
H2       0.66906    0.25633    0.50350   1.00
C3a      0.78599    0.25708    0.58155   1.00
H1       0.81283    0.26355    0.59700   1.00
C3a      0.71733    0.23947    0.58257   1.00
H1       0.69113    0.23234    0.59881   1.00
C2       0.75208    0.24785    0.60243   1.00
C2       0.75215    0.39757    0.24792   1.00
C3a      0.78605    0.41884    0.23955   1.00
H1       0.81290    0.40369    0.23244   1.00
C3a      0.71740    0.41704    0.25713   1.00
H1       0.69121    0.40051    0.26359   1.00
C3b      0.78558    0.45938    0.24027   1.00
C5       0.82254    0.48144    0.23112   1.00
H2       0.83101    0.49984    0.25637   1.00
H2       0.84728    0.46161    0.22449   1.00
H2       0.81795    0.50060    0.20545   1.00
C3b      0.71617    0.45756    0.25804   1.00
C5       0.67832    0.47767    0.26805   1.00
H2       0.66906    0.49670    0.24356   1.00
H2       0.65444    0.45655    0.27386   1.00
H2       0.68212    0.49594    0.29448   1.00
C4       0.75045    0.47873    0.24957   1.00
C4       0.74955    0.52127    0.25043   1.00
C3b      0.75803    0.54101    0.28555   1.00
C5       0.76806    0.51937    0.32254   1.00
H2       0.79451    0.50129    0.31797   1.00
H2       0.77387    0.53949    0.34726   1.00
H2       0.74360    0.49995    0.33101   1.00
C3b      0.74023    0.54204    0.21613   1.00
C5       0.73108    0.52152    0.17829   1.00
H2       0.70542    0.50217    0.18210   1.00
H2       0.72441    0.54235    0.15440   1.00
H2       0.75633    0.50350    0.16906   1.00
C3a      0.75708    0.58155    0.28599   1.00
H1       0.76355    0.59700    0.31283   1.00
C3a      0.73947    0.58257    0.21733   1.00
H1       0.73234    0.59881    0.19113   1.00
C2       0.74785    0.60243    0.25208   1.00
C2       0.60243    0.24792    0.24785   1.00
C3a      0.58116    0.23955    0.21395   1.00
H1       0.59631    0.23244    0.18710   1.00
C3a      0.58296    0.25713    0.28260   1.00
H1       0.59949    0.26359    0.30879   1.00
C3b      0.54062    0.24027    0.21442   1.00
C5       0.51856    0.23112    0.17746   1.00
H2       0.50016    0.25637    0.16899   1.00
H2       0.53839    0.22449    0.15272   1.00
H2       0.49940    0.20545    0.18205   1.00
C3b      0.54244    0.25804    0.28383   1.00
C5       0.52233    0.26805    0.32168   1.00
H2       0.50330    0.24356    0.33094   1.00
H2       0.54345    0.27386    0.34556   1.00
H2       0.50406    0.29448    0.31788   1.00
C4       0.52127    0.24957    0.24955   1.00
C4       0.47873    0.25043    0.25045   1.00
C3b      0.45899    0.28555    0.24197   1.00
C5       0.48063    0.32254    0.23194   1.00
H2       0.49871    0.31797    0.20549   1.00
H2       0.46051    0.34726    0.22613   1.00
H2       0.50005    0.33101    0.25640   1.00
C3b      0.45796    0.21613    0.25977   1.00
C5       0.47848    0.17829    0.26892   1.00
H2       0.49783    0.18210    0.29458   1.00
H2       0.45765    0.15440    0.27559   1.00
H2       0.49650    0.16906    0.24367   1.00
C3a      0.41845    0.28599    0.24292   1.00
H1       0.40300    0.31283    0.23645   1.00
C3a      0.41743    0.21733    0.26053   1.00
H1       0.40119    0.19113    0.26766   1.00
C2       0.39757    0.25208    0.25215   1.00
C2       0.89757    0.24792    0.25215   1.00
C3a      0.91884    0.23955    0.28605   1.00
H1       0.90369    0.23244    0.31290   1.00
C3a      0.91704    0.25713    0.21740   1.00
H1       0.90051    0.26359    0.19121   1.00
C3b      0.95938    0.24027    0.28558   1.00
C5       0.98144    0.23112    0.32254   1.00
H2       0.99984    0.25637    0.33101   1.00
H2       0.96161    0.22449    0.34728   1.00
H2       1.00060    0.20545    0.31795   1.00
C3b      0.95756    0.25804    0.21617   1.00
C5       0.97767    0.26805    0.17832   1.00
H2       0.99670    0.24356    0.16906   1.00
H2       0.95655    0.27386    0.15444   1.00
H2       0.99594    0.29448    0.18212   1.00
C4       0.97873    0.24957    0.25045   1.00
C4       1.02127    0.25043    0.24955   1.00
C3b      1.04101    0.28555    0.25803   1.00
C5       1.01937    0.32254    0.26806   1.00
H2       1.00129    0.31797    0.29451   1.00
H2       1.03949    0.34726    0.27387   1.00
H2       0.99995    0.33101    0.24360   1.00
C3b      1.04204    0.21613    0.24023   1.00
C5       1.02152    0.17829    0.23108   1.00
H2       1.00217    0.18210    0.20542   1.00
H2       1.04235    0.15440    0.22441   1.00
H2       1.00350    0.16906    0.25633   1.00
C3a      1.08155    0.28599    0.25708   1.00
H1       1.09700    0.31283    0.26355   1.00
C3a      1.08257    0.21733    0.23947   1.00
H1       1.09881    0.19113    0.23234   1.00
C2       1.10243    0.25208    0.24785   1.00
C2       0.74785    0.10243    0.24792   1.00
C3a      0.71395    0.08116    0.23955   1.00
H1       0.68710    0.09631    0.23244   1.00
C3a      0.78260    0.08296    0.25713   1.00
H1       0.80879    0.09949    0.26359   1.00
C3b      0.71442    0.04062    0.24027   1.00
C5       0.67746    0.01856    0.23112   1.00
H2       0.66899    0.00016    0.25637   1.00
H2       0.65272    0.03839    0.22449   1.00
H2       0.68205    -0.00060   0.20545   1.00
C3b      0.78383    0.04244    0.25804   1.00
C5       0.82168    0.02233    0.26805   1.00
H2       0.83094    0.00330    0.24356   1.00
H2       0.84556    0.04345    0.27386   1.00
H2       0.81788    0.00406    0.29448   1.00
C4       0.74955    0.02127    0.24957   1.00
C4       0.75045    -0.02127   0.25043   1.00
C3b      0.74197    -0.04101   0.28555   1.00
C5       0.73194    -0.01937   0.32254   1.00
H2       0.70549    -0.00129   0.31797   1.00
H2       0.72613    -0.03949   0.34726   1.00
H2       0.75640    0.00005    0.33101   1.00
C3b      0.75977    -0.04204   0.21613   1.00
C5       0.76892    -0.02152   0.17829   1.00
H2       0.79458    -0.00217   0.18210   1.00
H2       0.77559    -0.04235   0.15440   1.00
H2       0.74367    -0.00350   0.16906   1.00
C3a      0.74292    -0.08155   0.28599   1.00
H1       0.73645    -0.09700   0.31283   1.00
C3a      0.76053    -0.08257   0.21733   1.00
H1       0.76766    -0.09881   0.19113   1.00
C2       0.75215    -0.10243   0.25208   1.00
C2       0.74792    0.24785    0.10243   1.00
C3a      0.73955    0.21395    0.08116   1.00
H1       0.73244    0.18710    0.09631   1.00
C3a      0.75713    0.28260    0.08296   1.00
H1       0.76359    0.30879    0.09949   1.00
C3b      0.74027    0.21442    0.04062   1.00
C5       0.73112    0.17746    0.01856   1.00
H2       0.75637    0.16899    0.00016   1.00
H2       0.72449    0.15272    0.03839   1.00
H2       0.70545    0.18205    -0.00060   1.00
C3b      0.75804    0.28383    0.04244   1.00
C5       0.76805    0.32168    0.02233   1.00
H2       0.74356    0.33094    0.00330   1.00
H2       0.77386    0.34556    0.04345   1.00
H2       0.79448    0.31788    0.00406   1.00
C4       0.74957    0.24955    0.02127   1.00
C4       0.75043    0.25045    -0.02127   1.00
C3b      0.78555    0.24197    -0.04101   1.00
C5       0.82254    0.23194    -0.01937   1.00
H2       0.81797    0.20549    -0.00129   1.00
H2       0.84726    0.22613    -0.03949   1.00
H2       0.83101    0.25640    0.00005   1.00
C3b      0.71613    0.25977    -0.04204   1.00
C5       0.67829    0.26892    -0.02152   1.00
H2       0.68210    0.29458    -0.00217   1.00
H2       0.65440    0.27559    -0.04235   1.00
H2       0.66906    0.24367    -0.00350   1.00
C3a      0.78599    0.24292    -0.08155   1.00
H1       0.81283    0.23645    -0.09700   1.00
C3a      0.71733    0.26053    -0.08257   1.00
H1       0.69113    0.26766    -0.09881   1.00
C2       0.75208    0.25215    -0.10243   1.00
C2       0.99792    1.00215    1.14757   1.00
C3a      0.98955    1.03605    1.16884   1.00
H1       0.98244    1.06290    1.15369   1.00
C3a      1.00713    0.96740    1.16704   1.00
H1       1.01359    0.94121    1.15051   1.00
C3b      0.99027    1.03558    1.20938   1.00
C5       0.98112    1.07254    1.23144   1.00
H2       1.00637    1.08101    1.24984   1.00
H2       0.97449    1.09728    1.21161   1.00
H2       0.95545    1.06795    1.25060   1.00
C3b      1.00804    0.96617    1.20756   1.00
C5       1.01805    0.92832    1.22767   1.00
H2       0.99356    0.91906    1.24670   1.00
H2       1.02386    0.90444    1.20655   1.00
H2       1.04448    0.93212    1.24594   1.00
C4       0.99957    1.00045    1.22873   1.00
C4       1.00043    0.99955    1.27127   1.00
C3b      1.03555    1.00803    1.29101   1.00
C5       1.07254    1.01806    1.26937   1.00
H2       1.06797    1.04451    1.25129   1.00
H2       1.09726    1.02387    1.28949   1.00
H2       1.08101    0.99360    1.24995   1.00
C3b      0.96613    0.99023    1.29204   1.00
C5       0.92829    0.98108    1.27152   1.00
H2       0.93210    0.95542    1.25217   1.00
H2       0.90440    0.97441    1.29235   1.00
H2       0.91906    1.00633    1.25350   1.00
C3a      1.03599    1.00708    1.33155   1.00
H1       1.06283    1.01355    1.34700   1.00
C3a      0.96733    0.98947    1.33257   1.00
H1       0.94113    0.98234    1.34881   1.00
C2       1.00208    0.99785    1.35243   1.00
C2       1.00215    1.14757    0.99792   1.00
C3a      1.03605    1.16884    0.98955   1.00
H1       1.06290    1.15369    0.98244   1.00
C3a      0.96740    1.16704    1.00713   1.00
H1       0.94121    1.15051    1.01359   1.00
C3b      1.03558    1.20938    0.99027   1.00
C5       1.07254    1.23144    0.98112   1.00
H2       1.08101    1.24984    1.00637   1.00
H2       1.09728    1.21161    0.97449   1.00
H2       1.06795    1.25060    0.95545   1.00
C3b      0.96617    1.20756    1.00804   1.00
C5       0.92832    1.22767    1.01805   1.00
H2       0.91906    1.24670    0.99356   1.00
H2       0.90444    1.20655    1.02386   1.00
H2       0.93212    1.24594    1.04448   1.00
C4       1.00045    1.22873    0.99957   1.00
C4       0.99955    1.27127    1.00043   1.00
C3b      1.00803    1.29101    1.03555   1.00
C5       1.01806    1.26937    1.07254   1.00
H2       1.04451    1.25129    1.06797   1.00
H2       1.02387    1.28949    1.09726   1.00
H2       0.99360    1.24995    1.08101   1.00
C3b      0.99023    1.29204    0.96613   1.00
C5       0.98108    1.27152    0.92829   1.00
H2       0.95542    1.25217    0.93210   1.00
H2       0.97441    1.29235    0.90440   1.00
H2       1.00633    1.25350    0.91906   1.00
C3a      1.00708    1.33155    1.03599   1.00
H1       1.01355    1.34700    1.06283   1.00
C3a      0.98947    1.33257    0.96733   1.00
H1       0.98234    1.34881    0.94113   1.00
C2       0.99785    1.35243    1.00208   1.00
C2       0.85243    0.99792    0.99785   1.00
C3a      0.83116    0.98955    0.96395   1.00
H1       0.84631    0.98244    0.93710   1.00
C3a      0.83296    1.00713    1.03260   1.00
H1       0.84949    1.01359    1.05879   1.00
C3b      0.79062    0.99027    0.96442   1.00
C5       0.76856    0.98112    0.92746   1.00
H2       0.75016    1.00637    0.91899   1.00
H2       0.78839    0.97449    0.90272   1.00
H2       0.74940    0.95545    0.93205   1.00
C3b      0.79244    1.00804    1.03383   1.00
C5       0.77233    1.01805    1.07168   1.00
H2       0.75330    0.99356    1.08094   1.00
H2       0.79345    1.02386    1.09556   1.00
H2       0.75406    1.04448    1.06788   1.00
C4       0.77127    0.99957    0.99955   1.00
C4       0.72873    1.00043    1.00045   1.00
C3b      0.70899    1.03555    0.99197   1.00
C5       0.73063    1.07254    0.98194   1.00
H2       0.74871    1.06797    0.95549   1.00
H2       0.71051    1.09726    0.97613   1.00
H2       0.75005    1.08101    1.00640   1.00
C3b      0.70796    0.96613    1.00977   1.00
C5       0.72848    0.92829    1.01892   1.00
H2       0.74783    0.93210    1.04458   1.00
H2       0.70765    0.90440    1.02559   1.00
H2       0.74650    0.91906    0.99367   1.00
C3a      0.66845    1.03599    0.99292   1.00
H1       0.65300    1.06283    0.98645   1.00
C3a      0.66743    0.96733    1.01053   1.00
H1       0.65119    0.94113    1.01766   1.00
C2       0.64757    1.00208    1.00215   1.00
C2       1.14757    0.99792    1.00215   1.00
C3a      1.16884    0.98955    1.03605   1.00
H1       1.15369    0.98244    1.06290   1.00
C3a      1.16704    1.00713    0.96740   1.00
H1       1.15051    1.01359    0.94121   1.00
C3b      1.20938    0.99027    1.03558   1.00
C5       1.23144    0.98112    1.07254   1.00
H2       1.24984    1.00637    1.08101   1.00
H2       1.21161    0.97449    1.09728   1.00
H2       1.25060    0.95545    1.06795   1.00
C3b      1.20756    1.00804    0.96617   1.00
C5       1.22767    1.01805    0.92832   1.00
H2       1.24670    0.99356    0.91906   1.00
H2       1.20655    1.02386    0.90444   1.00
H2       1.24594    1.04448    0.93212   1.00
C4       1.22873    0.99957    1.00045   1.00
C4       1.27127    1.00043    0.99955   1.00
C3b      1.29101    1.03555    1.00803   1.00
C5       1.26937    1.07254    1.01806   1.00
H2       1.25129    1.06797    1.04451   1.00
H2       1.28949    1.09726    1.02387   1.00
H2       1.24995    1.08101    0.99360   1.00
C3b      1.29204    0.96613    0.99023   1.00
C5       1.27152    0.92829    0.98108   1.00
H2       1.25217    0.93210    0.95542   1.00
H2       1.29235    0.90440    0.97441   1.00
H2       1.25350    0.91906    1.00633   1.00
C3a      1.33155    1.03599    1.00708   1.00
H1       1.34700    1.06283    1.01355   1.00
C3a      1.33257    0.96733    0.98947   1.00
H1       1.34881    0.94113    0.98234   1.00
C2       1.35243    1.00208    0.99785   1.00
C2       0.99785    0.85243    0.99792   1.00
C3a      0.96395    0.83116    0.98955   1.00
H1       0.93710    0.84631    0.98244   1.00
C3a      1.03260    0.83296    1.00713   1.00
H1       1.05879    0.84949    1.01359   1.00
C3b      0.96442    0.79062    0.99027   1.00
C5       0.92746    0.76856    0.98112   1.00
H2       0.91899    0.75016    1.00637   1.00
H2       0.90272    0.78839    0.97449   1.00
H2       0.93205    0.74940    0.95545   1.00
C3b      1.03383    0.79244    1.00804   1.00
C5       1.07168    0.77233    1.01805   1.00
H2       1.08094    0.75330    0.99356   1.00
H2       1.09556    0.79345    1.02386   1.00
H2       1.06788    0.75406    1.04448   1.00
C4       0.99955    0.77127    0.99957   1.00
C4       1.00045    0.72873    1.00043   1.00
C3b      0.99197    0.70899    1.03555   1.00
C5       0.98194    0.73063    1.07254   1.00
H2       0.95549    0.74871    1.06797   1.00
H2       0.97613    0.71051    1.09726   1.00
H2       1.00640    0.75005    1.08101   1.00
C3b      1.00977    0.70796    0.96613   1.00
C5       1.01892    0.72848    0.92829   1.00
H2       1.04458    0.74783    0.93210   1.00
H2       1.02559    0.70765    0.90440   1.00
H2       0.99367    0.74650    0.91906   1.00
C3a      0.99292    0.66845    1.03599   1.00
H1       0.98645    0.65300    1.06283   1.00
C3a      1.01053    0.66743    0.96733   1.00
H1       1.01766    0.65119    0.94113   1.00
C2       1.00215    0.64757    1.00208   1.00
C2       0.99792    0.99785    0.85243   1.00
C3a      0.98955    0.96395    0.83116   1.00
H1       0.98244    0.93710    0.84631   1.00
C3a      1.00713    1.03260    0.83296   1.00
H1       1.01359    1.05879    0.84949   1.00
C3b      0.99027    0.96442    0.79062   1.00
C5       0.98112    0.92746    0.76856   1.00
H2       1.00637    0.91899    0.75016   1.00
H2       0.97449    0.90272    0.78839   1.00
H2       0.95545    0.93205    0.74940   1.00
C3b      1.00804    1.03383    0.79244   1.00
C5       1.01805    1.07168    0.77233   1.00
H2       0.99356    1.08094    0.75330   1.00
H2       1.02386    1.09556    0.79345   1.00
H2       1.04448    1.06788    0.75406   1.00
C4       0.99957    0.99955    0.77127   1.00
C4       1.00043    1.00045    0.72873   1.00
C3b      1.03555    0.99197    0.70899   1.00
C5       1.07254    0.98194    0.73063   1.00
H2       1.06797    0.95549    0.74871   1.00
H2       1.09726    0.97613    0.71051   1.00
H2       1.08101    1.00640    0.75005   1.00
C3b      0.96613    1.00977    0.70796   1.00
C5       0.92829    1.01892    0.72848   1.00
H2       0.93210    1.04458    0.74783   1.00
H2       0.90440    1.02559    0.70765   1.00
H2       0.91906    0.99367    0.74650   1.00
C3a      1.03599    0.99292    0.66845   1.00
H1       1.06283    0.98645    0.65300   1.00
C3a      0.96733    1.01053    0.66743   1.00
H1       0.94113    1.01766    0.65119   1.00
C2       1.00208    1.00215    0.64757   1.00
C2       0.49792    0.50215    1.14757   1.00
C3a      0.48955    0.53605    1.16884   1.00
H1       0.48244    0.56290    1.15369   1.00
C3a      0.50713    0.46740    1.16704   1.00
H1       0.51359    0.44121    1.15051   1.00
C3b      0.49027    0.53558    1.20938   1.00
C5       0.48112    0.57254    1.23144   1.00
H2       0.50637    0.58101    1.24984   1.00
H2       0.47449    0.59728    1.21161   1.00
H2       0.45545    0.56795    1.25060   1.00
C3b      0.50804    0.46617    1.20756   1.00
C5       0.51805    0.42832    1.22767   1.00
H2       0.49356    0.41906    1.24670   1.00
H2       0.52386    0.40444    1.20655   1.00
H2       0.54448    0.43212    1.24594   1.00
C4       0.49957    0.50045    1.22873   1.00
C4       0.50043    0.49955    1.27127   1.00
C3b      0.53555    0.50803    1.29101   1.00
C5       0.57254    0.51806    1.26937   1.00
H2       0.56797    0.54451    1.25129   1.00
H2       0.59726    0.52387    1.28949   1.00
H2       0.58101    0.49360    1.24995   1.00
C3b      0.46613    0.49023    1.29204   1.00
C5       0.42829    0.48108    1.27152   1.00
H2       0.43210    0.45542    1.25217   1.00
H2       0.40440    0.47441    1.29235   1.00
H2       0.41906    0.50633    1.25350   1.00
C3a      0.53599    0.50708    1.33155   1.00
H1       0.56283    0.51355    1.34700   1.00
C3a      0.46733    0.48947    1.33257   1.00
H1       0.44113    0.48234    1.34881   1.00
C2       0.50208    0.49785    1.35243   1.00
C2       0.50215    0.64757    0.99792   1.00
C3a      0.53605    0.66884    0.98955   1.00
H1       0.56290    0.65369    0.98244   1.00
C3a      0.46740    0.66704    1.00713   1.00
H1       0.44121    0.65051    1.01359   1.00
C3b      0.53558    0.70938    0.99027   1.00
C5       0.57254    0.73144    0.98112   1.00
H2       0.58101    0.74984    1.00637   1.00
H2       0.59728    0.71161    0.97449   1.00
H2       0.56795    0.75060    0.95545   1.00
C3b      0.46617    0.70756    1.00804   1.00
C5       0.42832    0.72767    1.01805   1.00
H2       0.41906    0.74670    0.99356   1.00
H2       0.40444    0.70655    1.02386   1.00
H2       0.43212    0.74594    1.04448   1.00
C4       0.50045    0.72873    0.99957   1.00
C4       0.49955    0.77127    1.00043   1.00
C3b      0.50803    0.79101    1.03555   1.00
C5       0.51806    0.76937    1.07254   1.00
H2       0.54451    0.75129    1.06797   1.00
H2       0.52387    0.78949    1.09726   1.00
H2       0.49360    0.74995    1.08101   1.00
C3b      0.49023    0.79204    0.96613   1.00
C5       0.48108    0.77152    0.92829   1.00
H2       0.45542    0.75217    0.93210   1.00
H2       0.47441    0.79235    0.90440   1.00
H2       0.50633    0.75350    0.91906   1.00
C3a      0.50708    0.83155    1.03599   1.00
H1       0.51355    0.84700    1.06283   1.00
C3a      0.48947    0.83257    0.96733   1.00
H1       0.48234    0.84881    0.94113   1.00
C2       0.49785    0.85243    1.00208   1.00
C2       0.35243    0.49792    0.99785   1.00
C3a      0.33116    0.48955    0.96395   1.00
H1       0.34631    0.48244    0.93710   1.00
C3a      0.33296    0.50713    1.03260   1.00
H1       0.34949    0.51359    1.05879   1.00
C3b      0.29062    0.49027    0.96442   1.00
C5       0.26856    0.48112    0.92746   1.00
H2       0.25016    0.50637    0.91899   1.00
H2       0.28839    0.47449    0.90272   1.00
H2       0.24940    0.45545    0.93205   1.00
C3b      0.29244    0.50804    1.03383   1.00
C5       0.27233    0.51805    1.07168   1.00
H2       0.25330    0.49356    1.08094   1.00
H2       0.29345    0.52386    1.09556   1.00
H2       0.25406    0.54448    1.06788   1.00
C4       0.27127    0.49957    0.99955   1.00
C4       0.22873    0.50043    1.00045   1.00
C3b      0.20899    0.53555    0.99197   1.00
C5       0.23063    0.57254    0.98194   1.00
H2       0.24871    0.56797    0.95549   1.00
H2       0.21051    0.59726    0.97613   1.00
H2       0.25005    0.58101    1.00640   1.00
C3b      0.20796    0.46613    1.00977   1.00
C5       0.22848    0.42829    1.01892   1.00
H2       0.24783    0.43210    1.04458   1.00
H2       0.20765    0.40440    1.02559   1.00
H2       0.24650    0.41906    0.99367   1.00
C3a      0.16845    0.53599    0.99292   1.00
H1       0.15300    0.56283    0.98645   1.00
C3a      0.16743    0.46733    1.01053   1.00
H1       0.15119    0.44113    1.01766   1.00
C2       0.14757    0.50208    1.00215   1.00
C2       0.64757    0.49792    1.00215   1.00
C3a      0.66884    0.48955    1.03605   1.00
H1       0.65369    0.48244    1.06290   1.00
C3a      0.66704    0.50713    0.96740   1.00
H1       0.65051    0.51359    0.94121   1.00
C3b      0.70938    0.49027    1.03558   1.00
C5       0.73144    0.48112    1.07254   1.00
H2       0.74984    0.50637    1.08101   1.00
H2       0.71161    0.47449    1.09728   1.00
H2       0.75060    0.45545    1.06795   1.00
C3b      0.70756    0.50804    0.96617   1.00
C5       0.72767    0.51805    0.92832   1.00
H2       0.74670    0.49356    0.91906   1.00
H2       0.70655    0.52386    0.90444   1.00
H2       0.74594    0.54448    0.93212   1.00
C4       0.72873    0.49957    1.00045   1.00
C4       0.77127    0.50043    0.99955   1.00
C3b      0.79101    0.53555    1.00803   1.00
C5       0.76937    0.57254    1.01806   1.00
H2       0.75129    0.56797    1.04451   1.00
H2       0.78949    0.59726    1.02387   1.00
H2       0.74995    0.58101    0.99360   1.00
C3b      0.79204    0.46613    0.99023   1.00
C5       0.77152    0.42829    0.98108   1.00
H2       0.75217    0.43210    0.95542   1.00
H2       0.79235    0.40440    0.97441   1.00
H2       0.75350    0.41906    1.00633   1.00
C3a      0.83155    0.53599    1.00708   1.00
H1       0.84700    0.56283    1.01355   1.00
C3a      0.83257    0.46733    0.98947   1.00
H1       0.84881    0.44113    0.98234   1.00
C2       0.85243    0.50208    0.99785   1.00
C2       0.49785    0.35243    0.99792   1.00
C3a      0.46395    0.33116    0.98955   1.00
H1       0.43710    0.34631    0.98244   1.00
C3a      0.53260    0.33296    1.00713   1.00
H1       0.55879    0.34949    1.01359   1.00
C3b      0.46442    0.29062    0.99027   1.00
C5       0.42746    0.26856    0.98112   1.00
H2       0.41899    0.25016    1.00637   1.00
H2       0.40272    0.28839    0.97449   1.00
H2       0.43205    0.24940    0.95545   1.00
C3b      0.53383    0.29244    1.00804   1.00
C5       0.57168    0.27233    1.01805   1.00
H2       0.58094    0.25330    0.99356   1.00
H2       0.59556    0.29345    1.02386   1.00
H2       0.56788    0.25406    1.04448   1.00
C4       0.49955    0.27127    0.99957   1.00
C4       0.50045    0.22873    1.00043   1.00
C3b      0.49197    0.20899    1.03555   1.00
C5       0.48194    0.23063    1.07254   1.00
H2       0.45549    0.24871    1.06797   1.00
H2       0.47613    0.21051    1.09726   1.00
H2       0.50640    0.25005    1.08101   1.00
C3b      0.50977    0.20796    0.96613   1.00
C5       0.51892    0.22848    0.92829   1.00
H2       0.54458    0.24783    0.93210   1.00
H2       0.52559    0.20765    0.90440   1.00
H2       0.49367    0.24650    0.91906   1.00
C3a      0.49292    0.16845    1.03599   1.00
H1       0.48645    0.15300    1.06283   1.00
C3a      0.51053    0.16743    0.96733   1.00
H1       0.51766    0.15119    0.94113   1.00
C2       0.50215    0.14757    1.00208   1.00
C2       0.49792    0.49785    0.85243   1.00
C3a      0.48955    0.46395    0.83116   1.00
H1       0.48244    0.43710    0.84631   1.00
C3a      0.50713    0.53260    0.83296   1.00
H1       0.51359    0.55879    0.84949   1.00
C3b      0.49027    0.46442    0.79062   1.00
C5       0.48112    0.42746    0.76856   1.00
H2       0.50637    0.41899    0.75016   1.00
H2       0.47449    0.40272    0.78839   1.00
H2       0.45545    0.43205    0.74940   1.00
C3b      0.50804    0.53383    0.79244   1.00
C5       0.51805    0.57168    0.77233   1.00
H2       0.49356    0.58094    0.75330   1.00
H2       0.52386    0.59556    0.79345   1.00
H2       0.54448    0.56788    0.75406   1.00
C4       0.49957    0.49955    0.77127   1.00
C4       0.50043    0.50045    0.72873   1.00
C3b      0.53555    0.49197    0.70899   1.00
C5       0.57254    0.48194    0.73063   1.00
H2       0.56797    0.45549    0.74871   1.00
H2       0.59726    0.47613    0.71051   1.00
H2       0.58101    0.50640    0.75005   1.00
C3b      0.46613    0.50977    0.70796   1.00
C5       0.42829    0.51892    0.72848   1.00
H2       0.43210    0.54458    0.74783   1.00
H2       0.40440    0.52559    0.70765   1.00
H2       0.41906    0.49367    0.74650   1.00
C3a      0.53599    0.49292    0.66845   1.00
H1       0.56283    0.48645    0.65300   1.00
C3a      0.46733    0.51053    0.66743   1.00
H1       0.44113    0.51766    0.65119   1.00
C2       0.50208    0.50215    0.64757   1.00
C2       0.49792    1.00215    0.64757   1.00
C3a      0.48955    1.03605    0.66884   1.00
H1       0.48244    1.06290    0.65369   1.00
C3a      0.50713    0.96740    0.66704   1.00
H1       0.51359    0.94121    0.65051   1.00
C3b      0.49027    1.03558    0.70938   1.00
C5       0.48112    1.07254    0.73144   1.00
H2       0.50637    1.08101    0.74984   1.00
H2       0.47449    1.09728    0.71161   1.00
H2       0.45545    1.06795    0.75060   1.00
C3b      0.50804    0.96617    0.70756   1.00
C5       0.51805    0.92832    0.72767   1.00
H2       0.49356    0.91906    0.74670   1.00
H2       0.52386    0.90444    0.70655   1.00
H2       0.54448    0.93212    0.74594   1.00
C4       0.49957    1.00045    0.72873   1.00
C4       0.50043    0.99955    0.77127   1.00
C3b      0.53555    1.00803    0.79101   1.00
C5       0.57254    1.01806    0.76937   1.00
H2       0.56797    1.04451    0.75129   1.00
H2       0.59726    1.02387    0.78949   1.00
H2       0.58101    0.99360    0.74995   1.00
C3b      0.46613    0.99023    0.79204   1.00
C5       0.42829    0.98108    0.77152   1.00
H2       0.43210    0.95542    0.75217   1.00
H2       0.40440    0.97441    0.79235   1.00
H2       0.41906    1.00633    0.75350   1.00
C3a      0.53599    1.00708    0.83155   1.00
H1       0.56283    1.01355    0.84700   1.00
C3a      0.46733    0.98947    0.83257   1.00
H1       0.44113    0.98234    0.84881   1.00
C2       0.50208    0.99785    0.85243   1.00
C2       0.50215    1.14757    0.49792   1.00
C3a      0.53605    1.16884    0.48955   1.00
H1       0.56290    1.15369    0.48244   1.00
C3a      0.46740    1.16704    0.50713   1.00
H1       0.44121    1.15051    0.51359   1.00
C3b      0.53558    1.20938    0.49027   1.00
C5       0.57254    1.23144    0.48112   1.00
H2       0.58101    1.24984    0.50637   1.00
H2       0.59728    1.21161    0.47449   1.00
H2       0.56795    1.25060    0.45545   1.00
C3b      0.46617    1.20756    0.50804   1.00
C5       0.42832    1.22767    0.51805   1.00
H2       0.41906    1.24670    0.49356   1.00
H2       0.40444    1.20655    0.52386   1.00
H2       0.43212    1.24594    0.54448   1.00
C4       0.50045    1.22873    0.49957   1.00
C4       0.49955    1.27127    0.50043   1.00
C3b      0.50803    1.29101    0.53555   1.00
C5       0.51806    1.26937    0.57254   1.00
H2       0.54451    1.25129    0.56797   1.00
H2       0.52387    1.28949    0.59726   1.00
H2       0.49360    1.24995    0.58101   1.00
C3b      0.49023    1.29204    0.46613   1.00
C5       0.48108    1.27152    0.42829   1.00
H2       0.45542    1.25217    0.43210   1.00
H2       0.47441    1.29235    0.40440   1.00
H2       0.50633    1.25350    0.41906   1.00
C3a      0.50708    1.33155    0.53599   1.00
H1       0.51355    1.34700    0.56283   1.00
C3a      0.48947    1.33257    0.46733   1.00
H1       0.48234    1.34881    0.44113   1.00
C2       0.49785    1.35243    0.50208   1.00
C2       0.35243    0.99792    0.49785   1.00
C3a      0.33116    0.98955    0.46395   1.00
H1       0.34631    0.98244    0.43710   1.00
C3a      0.33296    1.00713    0.53260   1.00
H1       0.34949    1.01359    0.55879   1.00
C3b      0.29062    0.99027    0.46442   1.00
C5       0.26856    0.98112    0.42746   1.00
H2       0.25016    1.00637    0.41899   1.00
H2       0.28839    0.97449    0.40272   1.00
H2       0.24940    0.95545    0.43205   1.00
C3b      0.29244    1.00804    0.53383   1.00
C5       0.27233    1.01805    0.57168   1.00
H2       0.25330    0.99356    0.58094   1.00
H2       0.29345    1.02386    0.59556   1.00
H2       0.25406    1.04448    0.56788   1.00
C4       0.27127    0.99957    0.49955   1.00
C4       0.22873    1.00043    0.50045   1.00
C3b      0.20899    1.03555    0.49197   1.00
C5       0.23063    1.07254    0.48194   1.00
H2       0.24871    1.06797    0.45549   1.00
H2       0.21051    1.09726    0.47613   1.00
H2       0.25005    1.08101    0.50640   1.00
C3b      0.20796    0.96613    0.50977   1.00
C5       0.22848    0.92829    0.51892   1.00
H2       0.24783    0.93210    0.54458   1.00
H2       0.20765    0.90440    0.52559   1.00
H2       0.24650    0.91906    0.49367   1.00
C3a      0.16845    1.03599    0.49292   1.00
H1       0.15300    1.06283    0.48645   1.00
C3a      0.16743    0.96733    0.51053   1.00
H1       0.15119    0.94113    0.51766   1.00
C2       0.14757    1.00208    0.50215   1.00
C2       0.64757    0.99792    0.50215   1.00
C3a      0.66884    0.98955    0.53605   1.00
H1       0.65369    0.98244    0.56290   1.00
C3a      0.66704    1.00713    0.46740   1.00
H1       0.65051    1.01359    0.44121   1.00
C3b      0.70938    0.99027    0.53558   1.00
C5       0.73144    0.98112    0.57254   1.00
H2       0.74984    1.00637    0.58101   1.00
H2       0.71161    0.97449    0.59728   1.00
H2       0.75060    0.95545    0.56795   1.00
C3b      0.70756    1.00804    0.46617   1.00
C5       0.72767    1.01805    0.42832   1.00
H2       0.74670    0.99356    0.41906   1.00
H2       0.70655    1.02386    0.40444   1.00
H2       0.74594    1.04448    0.43212   1.00
C4       0.72873    0.99957    0.50045   1.00
C4       0.77127    1.00043    0.49955   1.00
C3b      0.79101    1.03555    0.50803   1.00
C5       0.76937    1.07254    0.51806   1.00
H2       0.75129    1.06797    0.54451   1.00
H2       0.78949    1.09726    0.52387   1.00
H2       0.74995    1.08101    0.49360   1.00
C3b      0.79204    0.96613    0.49023   1.00
C5       0.77152    0.92829    0.48108   1.00
H2       0.75217    0.93210    0.45542   1.00
H2       0.79235    0.90440    0.47441   1.00
H2       0.75350    0.91906    0.50633   1.00
C3a      0.83155    1.03599    0.50708   1.00
H1       0.84700    1.06283    0.51355   1.00
C3a      0.83257    0.96733    0.48947   1.00
H1       0.84881    0.94113    0.48234   1.00
C2       0.85243    1.00208    0.49785   1.00
C2       0.49785    0.85243    0.49792   1.00
C3a      0.46395    0.83116    0.48955   1.00
H1       0.43710    0.84631    0.48244   1.00
C3a      0.53260    0.83296    0.50713   1.00
H1       0.55879    0.84949    0.51359   1.00
C3b      0.46442    0.79062    0.49027   1.00
C5       0.42746    0.76856    0.48112   1.00
H2       0.41899    0.75016    0.50637   1.00
H2       0.40272    0.78839    0.47449   1.00
H2       0.43205    0.74940    0.45545   1.00
C3b      0.53383    0.79244    0.50804   1.00
C5       0.57168    0.77233    0.51805   1.00
H2       0.58094    0.75330    0.49356   1.00
H2       0.59556    0.79345    0.52386   1.00
H2       0.56788    0.75406    0.54448   1.00
C4       0.49955    0.77127    0.49957   1.00
C4       0.50045    0.72873    0.50043   1.00
C3b      0.49197    0.70899    0.53555   1.00
C5       0.48194    0.73063    0.57254   1.00
H2       0.45549    0.74871    0.56797   1.00
H2       0.47613    0.71051    0.59726   1.00
H2       0.50640    0.75005    0.58101   1.00
C3b      0.50977    0.70796    0.46613   1.00
C5       0.51892    0.72848    0.42829   1.00
H2       0.54458    0.74783    0.43210   1.00
H2       0.52559    0.70765    0.40440   1.00
H2       0.49367    0.74650    0.41906   1.00
C3a      0.49292    0.66845    0.53599   1.00
H1       0.48645    0.65300    0.56283   1.00
C3a      0.51053    0.66743    0.46733   1.00
H1       0.51766    0.65119    0.44113   1.00
C2       0.50215    0.64757    0.50208   1.00
C2       0.49792    0.99785    0.35243   1.00
C3a      0.48955    0.96395    0.33116   1.00
H1       0.48244    0.93710    0.34631   1.00
C3a      0.50713    1.03260    0.33296   1.00
H1       0.51359    1.05879    0.34949   1.00
C3b      0.49027    0.96442    0.29062   1.00
C5       0.48112    0.92746    0.26856   1.00
H2       0.50637    0.91899    0.25016   1.00
H2       0.47449    0.90272    0.28839   1.00
H2       0.45545    0.93205    0.24940   1.00
C3b      0.50804    1.03383    0.29244   1.00
C5       0.51805    1.07168    0.27233   1.00
H2       0.49356    1.08094    0.25330   1.00
H2       0.52386    1.09556    0.29345   1.00
H2       0.54448    1.06788    0.25406   1.00
C4       0.49957    0.99955    0.27127   1.00
C4       0.50043    1.00045    0.22873   1.00
C3b      0.53555    0.99197    0.20899   1.00
C5       0.57254    0.98194    0.23063   1.00
H2       0.56797    0.95549    0.24871   1.00
H2       0.59726    0.97613    0.21051   1.00
H2       0.58101    1.00640    0.25005   1.00
C3b      0.46613    1.00977    0.20796   1.00
C5       0.42829    1.01892    0.22848   1.00
H2       0.43210    1.04458    0.24783   1.00
H2       0.40440    1.02559    0.20765   1.00
H2       0.41906    0.99367    0.24650   1.00
C3a      0.53599    0.99292    0.16845   1.00
H1       0.56283    0.98645    0.15300   1.00
C3a      0.46733    1.01053    0.16743   1.00
H1       0.44113    1.01766    0.15119   1.00
C2       0.50208    1.00215    0.14757   1.00
C2       0.99792    0.50215    0.64757   1.00
C3a      0.98955    0.53605    0.66884   1.00
H1       0.98244    0.56290    0.65369   1.00
C3a      1.00713    0.46740    0.66704   1.00
H1       1.01359    0.44121    0.65051   1.00
C3b      0.99027    0.53558    0.70938   1.00
C5       0.98112    0.57254    0.73144   1.00
H2       1.00637    0.58101    0.74984   1.00
H2       0.97449    0.59728    0.71161   1.00
H2       0.95545    0.56795    0.75060   1.00
C3b      1.00804    0.46617    0.70756   1.00
C5       1.01805    0.42832    0.72767   1.00
H2       0.99356    0.41906    0.74670   1.00
H2       1.02386    0.40444    0.70655   1.00
H2       1.04448    0.43212    0.74594   1.00
C4       0.99957    0.50045    0.72873   1.00
C4       1.00043    0.49955    0.77127   1.00
C3b      1.03555    0.50803    0.79101   1.00
C5       1.07254    0.51806    0.76937   1.00
H2       1.06797    0.54451    0.75129   1.00
H2       1.09726    0.52387    0.78949   1.00
H2       1.08101    0.49360    0.74995   1.00
C3b      0.96613    0.49023    0.79204   1.00
C5       0.92829    0.48108    0.77152   1.00
H2       0.93210    0.45542    0.75217   1.00
H2       0.90440    0.47441    0.79235   1.00
H2       0.91906    0.50633    0.75350   1.00
C3a      1.03599    0.50708    0.83155   1.00
H1       1.06283    0.51355    0.84700   1.00
C3a      0.96733    0.48947    0.83257   1.00
H1       0.94113    0.48234    0.84881   1.00
C2       1.00208    0.49785    0.85243   1.00
C2       1.00215    0.64757    0.49792   1.00
C3a      1.03605    0.66884    0.48955   1.00
H1       1.06290    0.65369    0.48244   1.00
C3a      0.96740    0.66704    0.50713   1.00
H1       0.94121    0.65051    0.51359   1.00
C3b      1.03558    0.70938    0.49027   1.00
C5       1.07254    0.73144    0.48112   1.00
H2       1.08101    0.74984    0.50637   1.00
H2       1.09728    0.71161    0.47449   1.00
H2       1.06795    0.75060    0.45545   1.00
C3b      0.96617    0.70756    0.50804   1.00
C5       0.92832    0.72767    0.51805   1.00
H2       0.91906    0.74670    0.49356   1.00
H2       0.90444    0.70655    0.52386   1.00
H2       0.93212    0.74594    0.54448   1.00
C4       1.00045    0.72873    0.49957   1.00
C4       0.99955    0.77127    0.50043   1.00
C3b      1.00803    0.79101    0.53555   1.00
C5       1.01806    0.76937    0.57254   1.00
H2       1.04451    0.75129    0.56797   1.00
H2       1.02387    0.78949    0.59726   1.00
H2       0.99360    0.74995    0.58101   1.00
C3b      0.99023    0.79204    0.46613   1.00
C5       0.98108    0.77152    0.42829   1.00
H2       0.95542    0.75217    0.43210   1.00
H2       0.97441    0.79235    0.40440   1.00
H2       1.00633    0.75350    0.41906   1.00
C3a      1.00708    0.83155    0.53599   1.00
H1       1.01355    0.84700    0.56283   1.00
C3a      0.98947    0.83257    0.46733   1.00
H1       0.98234    0.84881    0.44113   1.00
C2       0.99785    0.85243    0.50208   1.00
C2       0.85243    0.49792    0.49785   1.00
C3a      0.83116    0.48955    0.46395   1.00
H1       0.84631    0.48244    0.43710   1.00
C3a      0.83296    0.50713    0.53260   1.00
H1       0.84949    0.51359    0.55879   1.00
C3b      0.79062    0.49027    0.46442   1.00
C5       0.76856    0.48112    0.42746   1.00
H2       0.75016    0.50637    0.41899   1.00
H2       0.78839    0.47449    0.40272   1.00
H2       0.74940    0.45545    0.43205   1.00
C3b      0.79244    0.50804    0.53383   1.00
C5       0.77233    0.51805    0.57168   1.00
H2       0.75330    0.49356    0.58094   1.00
H2       0.79345    0.52386    0.59556   1.00
H2       0.75406    0.54448    0.56788   1.00
C4       0.77127    0.49957    0.49955   1.00
C4       0.72873    0.50043    0.50045   1.00
C3b      0.70899    0.53555    0.49197   1.00
C5       0.73063    0.57254    0.48194   1.00
H2       0.74871    0.56797    0.45549   1.00
H2       0.71051    0.59726    0.47613   1.00
H2       0.75005    0.58101    0.50640   1.00
C3b      0.70796    0.46613    0.50977   1.00
C5       0.72848    0.42829    0.51892   1.00
H2       0.74783    0.43210    0.54458   1.00
H2       0.70765    0.40440    0.52559   1.00
H2       0.74650    0.41906    0.49367   1.00
C3a      0.66845    0.53599    0.49292   1.00
H1       0.65300    0.56283    0.48645   1.00
C3a      0.66743    0.46733    0.51053   1.00
H1       0.65119    0.44113    0.51766   1.00
C2       0.64757    0.50208    0.50215   1.00
C2       1.14757    0.49792    0.50215   1.00
C3a      1.16884    0.48955    0.53605   1.00
H1       1.15369    0.48244    0.56290   1.00
C3a      1.16704    0.50713    0.46740   1.00
H1       1.15051    0.51359    0.44121   1.00
C3b      1.20938    0.49027    0.53558   1.00
C5       1.23144    0.48112    0.57254   1.00
H2       1.24984    0.50637    0.58101   1.00
H2       1.21161    0.47449    0.59728   1.00
H2       1.25060    0.45545    0.56795   1.00
C3b      1.20756    0.50804    0.46617   1.00
C5       1.22767    0.51805    0.42832   1.00
H2       1.24670    0.49356    0.41906   1.00
H2       1.20655    0.52386    0.40444   1.00
H2       1.24594    0.54448    0.43212   1.00
C4       1.22873    0.49957    0.50045   1.00
C4       1.27127    0.50043    0.49955   1.00
C3b      1.29101    0.53555    0.50803   1.00
C5       1.26937    0.57254    0.51806   1.00
H2       1.25129    0.56797    0.54451   1.00
H2       1.28949    0.59726    0.52387   1.00
H2       1.24995    0.58101    0.49360   1.00
C3b      1.29204    0.46613    0.49023   1.00
C5       1.27152    0.42829    0.48108   1.00
H2       1.25217    0.43210    0.45542   1.00
H2       1.29235    0.40440    0.47441   1.00
H2       1.25350    0.41906    0.50633   1.00
C3a      1.33155    0.53599    0.50708   1.00
H1       1.34700    0.56283    0.51355   1.00
C3a      1.33257    0.46733    0.48947   1.00
H1       1.34881    0.44113    0.48234   1.00
C2       1.35243    0.50208    0.49785   1.00
C2       0.99785    0.35243    0.49792   1.00
C3a      0.96395    0.33116    0.48955   1.00
H1       0.93710    0.34631    0.48244   1.00
C3a      1.03260    0.33296    0.50713   1.00
H1       1.05879    0.34949    0.51359   1.00
C3b      0.96442    0.29062    0.49027   1.00
C5       0.92746    0.26856    0.48112   1.00
H2       0.91899    0.25016    0.50637   1.00
H2       0.90272    0.28839    0.47449   1.00
H2       0.93205    0.24940    0.45545   1.00
C3b      1.03383    0.29244    0.50804   1.00
C5       1.07168    0.27233    0.51805   1.00
H2       1.08094    0.25330    0.49356   1.00
H2       1.09556    0.29345    0.52386   1.00
H2       1.06788    0.25406    0.54448   1.00
C4       0.99955    0.27127    0.49957   1.00
C4       1.00045    0.22873    0.50043   1.00
C3b      0.99197    0.20899    0.53555   1.00
C5       0.98194    0.23063    0.57254   1.00
H2       0.95549    0.24871    0.56797   1.00
H2       0.97613    0.21051    0.59726   1.00
H2       1.00640    0.25005    0.58101   1.00
C3b      1.00977    0.20796    0.46613   1.00
C5       1.01892    0.22848    0.42829   1.00
H2       1.04458    0.24783    0.43210   1.00
H2       1.02559    0.20765    0.40440   1.00
H2       0.99367    0.24650    0.41906   1.00
C3a      0.99292    0.16845    0.53599   1.00
H1       0.98645    0.15300    0.56283   1.00
C3a      1.01053    0.16743    0.46733   1.00
H1       1.01766    0.15119    0.44113   1.00
C2       1.00215    0.14757    0.50208   1.00
C2       0.99792    0.49785    0.35243   1.00
C3a      0.98955    0.46395    0.33116   1.00
H1       0.98244    0.43710    0.34631   1.00
C3a      1.00713    0.53260    0.33296   1.00
H1       1.01359    0.55879    0.34949   1.00
C3b      0.99027    0.46442    0.29062   1.00
C5       0.98112    0.42746    0.26856   1.00
H2       1.00637    0.41899    0.25016   1.00
H2       0.97449    0.40272    0.28839   1.00
H2       0.95545    0.43205    0.24940   1.00
C3b      1.00804    0.53383    0.29244   1.00
C5       1.01805    0.57168    0.27233   1.00
H2       0.99356    0.58094    0.25330   1.00
H2       1.02386    0.59556    0.29345   1.00
H2       1.04448    0.56788    0.25406   1.00
C4       0.99957    0.49955    0.27127   1.00
C4       1.00043    0.50045    0.22873   1.00
C3b      1.03555    0.49197    0.20899   1.00
C5       1.07254    0.48194    0.23063   1.00
H2       1.06797    0.45549    0.24871   1.00
H2       1.09726    0.47613    0.21051   1.00
H2       1.08101    0.50640    0.25005   1.00
C3b      0.96613    0.50977    0.20796   1.00
C5       0.92829    0.51892    0.22848   1.00
H2       0.93210    0.54458    0.24783   1.00
H2       0.90440    0.52559    0.20765   1.00
H2       0.91906    0.49367    0.24650   1.00
C3a      1.03599    0.49292    0.16845   1.00
H1       1.06283    0.48645    0.15300   1.00
C3a      0.96733    0.51053    0.16743   1.00
H1       0.94113    0.51766    0.15119   1.00
C2       1.00208    0.50215    0.14757   1.00
