data_IRMOF10_SG202_interpen_Ligand1lp_label_l.

_audit_creation_method             'generated by an auxiliary program of Tobunporous'

_symmetry_space_group_name_H-M     'P 1'
_symmetry_Int_Tables_number        1
_symmetry_cell_setting             triclinic

_cell_length_a                    34.2800
_cell_length_b                    34.2800
_cell_length_c                    34.2800
_cell_angle_alpha                 90.0000
_cell_angle_beta                  90.0000
_cell_angle_gamma                 90.0000

loop_
_atom_site_label
_atom_site_fract_x
_atom_site_fract_y
_atom_site_fract_z
_atom_site_occupancy
O1       0.75000    0.75000    0.75000   1.00
Zn1      0.71720    0.78280    0.78280   1.00
Zn1      0.78280    0.71720    0.78280   1.00
Zn1      0.78280    0.78280    0.71720   1.00
Zn1      0.71720    0.71720    0.71720   1.00
O2       0.72650    0.77350    0.83820   1.00
O2       0.72650    0.83820    0.77350   1.00
O2       0.66180    0.77350    0.77350   1.00
O2       0.77350    0.72650    0.83820   1.00
O2       0.83820    0.72650    0.77350   1.00
O2       0.77350    0.66180    0.77350   1.00
O2       0.77350    0.83820    0.72650   1.00
O2       0.83820    0.77350    0.72650   1.00
O2       0.77350    0.77350    0.66180   1.00
O2       0.66180    0.72650    0.72650   1.00
O2       0.72650    0.66180    0.72650   1.00
O2       0.72650    0.72650    0.66180   1.00
C1       0.75000    0.75000    0.85520   1.00
C1       0.75000    0.85520    0.75000   1.00
C1       0.64480    0.75000    0.75000   1.00
C1       0.85520    0.75000    0.75000   1.00
C1       0.75000    0.64480    0.75000   1.00
C1       0.75000    0.75000    0.64480   1.00
O1       0.25000    0.25000    0.75000   1.00
Zn1      0.21720    0.28280    0.78280   1.00
Zn1      0.28280    0.21720    0.78280   1.00
Zn1      0.28280    0.28280    0.71720   1.00
Zn1      0.21720    0.21720    0.71720   1.00
O2       0.22650    0.27350    0.83820   1.00
O2       0.22650    0.33820    0.77350   1.00
O2       0.16180    0.27350    0.77350   1.00
O2       0.27350    0.22650    0.83820   1.00
O2       0.33820    0.22650    0.77350   1.00
O2       0.27350    0.16180    0.77350   1.00
O2       0.27350    0.33820    0.72650   1.00
O2       0.33820    0.27350    0.72650   1.00
O2       0.27350    0.27350    0.66180   1.00
O2       0.16180    0.22650    0.72650   1.00
O2       0.22650    0.16180    0.72650   1.00
O2       0.22650    0.22650    0.66180   1.00
C1       0.25000    0.25000    0.85520   1.00
C1       0.25000    0.35520    0.75000   1.00
C1       0.14480    0.25000    0.75000   1.00
C1       0.35520    0.25000    0.75000   1.00
C1       0.25000    0.14480    0.75000   1.00
C1       0.25000    0.25000    0.64480   1.00
O1       0.25000    0.75000    0.25000   1.00
Zn1      0.21720    0.78280    0.28280   1.00
Zn1      0.28280    0.71720    0.28280   1.00
Zn1      0.28280    0.78280    0.21720   1.00
Zn1      0.21720    0.71720    0.21720   1.00
O2       0.22650    0.77350    0.33820   1.00
O2       0.22650    0.83820    0.27350   1.00
O2       0.16180    0.77350    0.27350   1.00
O2       0.27350    0.72650    0.33820   1.00
O2       0.33820    0.72650    0.27350   1.00
O2       0.27350    0.66180    0.27350   1.00
O2       0.27350    0.83820    0.22650   1.00
O2       0.33820    0.77350    0.22650   1.00
O2       0.27350    0.77350    0.16180   1.00
O2       0.16180    0.72650    0.22650   1.00
O2       0.22650    0.66180    0.22650   1.00
O2       0.22650    0.72650    0.16180   1.00
C1       0.25000    0.75000    0.35520   1.00
C1       0.25000    0.85520    0.25000   1.00
C1       0.14480    0.75000    0.25000   1.00
C1       0.35520    0.75000    0.25000   1.00
C1       0.25000    0.64480    0.25000   1.00
C1       0.25000    0.75000    0.14480   1.00
O1       0.75000    0.25000    0.25000   1.00
Zn1      0.71720    0.28280    0.28280   1.00
Zn1      0.78280    0.21720    0.28280   1.00
Zn1      0.78280    0.28280    0.21720   1.00
Zn1      0.71720    0.21720    0.21720   1.00
O2       0.72650    0.27350    0.33820   1.00
O2       0.72650    0.33820    0.27350   1.00
O2       0.66180    0.27350    0.27350   1.00
O2       0.77350    0.22650    0.33820   1.00
O2       0.83820    0.22650    0.27350   1.00
O2       0.77350    0.16180    0.27350   1.00
O2       0.77350    0.33820    0.22650   1.00
O2       0.83820    0.27350    0.22650   1.00
O2       0.77350    0.27350    0.16180   1.00
O2       0.66180    0.22650    0.22650   1.00
O2       0.72650    0.16180    0.22650   1.00
O2       0.72650    0.22650    0.16180   1.00
C1       0.75000    0.25000    0.35520   1.00
C1       0.75000    0.35520    0.25000   1.00
C1       0.64480    0.25000    0.25000   1.00
C1       0.85520    0.25000    0.25000   1.00
C1       0.75000    0.14480    0.25000   1.00
C1       0.75000    0.25000    0.14480   1.00
O1       0.25000    0.25000    0.25000   1.00
Zn1      0.28280    0.21720    0.21720   1.00
Zn1      0.21720    0.28280    0.21720   1.00
Zn1      0.21720    0.21720    0.28280   1.00
Zn1      0.28280    0.28280    0.28280   1.00
O2       0.27350    0.22650    0.16180   1.00
O2       0.27350    0.16180    0.22650   1.00
O2       0.33820    0.22650    0.22650   1.00
O2       0.22650    0.27350    0.16180   1.00
O2       0.16180    0.27350    0.22650   1.00
O2       0.22650    0.33820    0.22650   1.00
O2       0.22650    0.16180    0.27350   1.00
O2       0.16180    0.22650    0.27350   1.00
O2       0.22650    0.22650    0.33820   1.00
O2       0.33820    0.27350    0.27350   1.00
O2       0.27350    0.33820    0.27350   1.00
O2       0.27350    0.27350    0.33820   1.00
C1       0.25000    0.25000    0.14480   1.00
C1       0.25000    0.14480    0.25000   1.00
C1       0.35520    0.25000    0.25000   1.00
C1       0.14480    0.25000    0.25000   1.00
C1       0.25000    0.35520    0.25000   1.00
C1       0.25000    0.25000    0.35520   1.00
O1       0.75000    0.75000    0.25000   1.00
Zn1      0.78280    0.71720    0.21720   1.00
Zn1      0.71720    0.78280    0.21720   1.00
Zn1      0.71720    0.71720    0.28280   1.00
Zn1      0.78280    0.78280    0.28280   1.00
O2       0.77350    0.72650    0.16180   1.00
O2       0.77350    0.66180    0.22650   1.00
O2       0.83820    0.72650    0.22650   1.00
O2       0.72650    0.77350    0.16180   1.00
O2       0.66180    0.77350    0.22650   1.00
O2       0.72650    0.83820    0.22650   1.00
O2       0.72650    0.66180    0.27350   1.00
O2       0.66180    0.72650    0.27350   1.00
O2       0.72650    0.72650    0.33820   1.00
O2       0.83820    0.77350    0.27350   1.00
O2       0.77350    0.83820    0.27350   1.00
O2       0.77350    0.77350    0.33820   1.00
C1       0.75000    0.75000    0.14480   1.00
C1       0.75000    0.64480    0.25000   1.00
C1       0.85520    0.75000    0.25000   1.00
C1       0.64480    0.75000    0.25000   1.00
C1       0.75000    0.85520    0.25000   1.00
C1       0.75000    0.75000    0.35520   1.00
O1       0.75000    0.25000    0.75000   1.00
Zn1      0.78280    0.21720    0.71720   1.00
Zn1      0.71720    0.28280    0.71720   1.00
Zn1      0.71720    0.21720    0.78280   1.00
Zn1      0.78280    0.28280    0.78280   1.00
O2       0.77350    0.22650    0.66180   1.00
O2       0.77350    0.16180    0.72650   1.00
O2       0.83820    0.22650    0.72650   1.00
O2       0.72650    0.27350    0.66180   1.00
O2       0.66180    0.27350    0.72650   1.00
O2       0.72650    0.33820    0.72650   1.00
O2       0.72650    0.16180    0.77350   1.00
O2       0.66180    0.22650    0.77350   1.00
O2       0.72650    0.22650    0.83820   1.00
O2       0.83820    0.27350    0.77350   1.00
O2       0.77350    0.33820    0.77350   1.00
O2       0.77350    0.27350    0.83820   1.00
C1       0.75000    0.25000    0.64480   1.00
C1       0.75000    0.14480    0.75000   1.00
C1       0.85520    0.25000    0.75000   1.00
C1       0.64480    0.25000    0.75000   1.00
C1       0.75000    0.35520    0.75000   1.00
C1       0.75000    0.25000    0.85520   1.00
O1       0.25000    0.75000    0.75000   1.00
Zn1      0.28280    0.71720    0.71720   1.00
Zn1      0.21720    0.78280    0.71720   1.00
Zn1      0.21720    0.71720    0.78280   1.00
Zn1      0.28280    0.78280    0.78280   1.00
O2       0.27350    0.72650    0.66180   1.00
O2       0.27350    0.66180    0.72650   1.00
O2       0.33820    0.72650    0.72650   1.00
O2       0.22650    0.77350    0.66180   1.00
O2       0.16180    0.77350    0.72650   1.00
O2       0.22650    0.83820    0.72650   1.00
O2       0.22650    0.66180    0.77350   1.00
O2       0.16180    0.72650    0.77350   1.00
O2       0.22650    0.72650    0.83820   1.00
O2       0.33820    0.77350    0.77350   1.00
O2       0.27350    0.83820    0.77350   1.00
O2       0.27350    0.77350    0.83820   1.00
C1       0.25000    0.75000    0.64480   1.00
C1       0.25000    0.64480    0.75000   1.00
C1       0.35520    0.75000    0.75000   1.00
C1       0.14480    0.75000    0.75000   1.00
C1       0.25000    0.85520    0.75000   1.00
C1       0.25000    0.75000    0.85520   1.00
O1       1.00000    1.00000    1.00000   1.00
Zn1      0.96720    1.03280    1.03280   1.00
Zn1      1.03280    0.96720    1.03280   1.00
Zn1      1.03280    1.03280    0.96720   1.00
Zn1      0.96720    0.96720    0.96720   1.00
O2       0.97650    1.02350    1.08820   1.00
O2       0.97650    1.08820    1.02350   1.00
O2       0.91180    1.02350    1.02350   1.00
O2       1.02350    0.97650    1.08820   1.00
O2       1.08820    0.97650    1.02350   1.00
O2       1.02350    0.91180    1.02350   1.00
O2       1.02350    1.08820    0.97650   1.00
O2       1.08820    1.02350    0.97650   1.00
O2       1.02350    1.02350    0.91180   1.00
O2       0.91180    0.97650    0.97650   1.00
O2       0.97650    0.91180    0.97650   1.00
O2       0.97650    0.97650    0.91180   1.00
C1       1.00000    1.00000    1.10520   1.00
C1       1.00000    1.10520    1.00000   1.00
C1       0.89480    1.00000    1.00000   1.00
C1       1.10520    1.00000    1.00000   1.00
C1       1.00000    0.89480    1.00000   1.00
C1       1.00000    1.00000    0.89480   1.00
O1       0.50000    0.50000    1.00000   1.00
Zn1      0.46720    0.53280    1.03280   1.00
Zn1      0.53280    0.46720    1.03280   1.00
Zn1      0.53280    0.53280    0.96720   1.00
Zn1      0.46720    0.46720    0.96720   1.00
O2       0.47650    0.52350    1.08820   1.00
O2       0.47650    0.58820    1.02350   1.00
O2       0.41180    0.52350    1.02350   1.00
O2       0.52350    0.47650    1.08820   1.00
O2       0.58820    0.47650    1.02350   1.00
O2       0.52350    0.41180    1.02350   1.00
O2       0.52350    0.58820    0.97650   1.00
O2       0.58820    0.52350    0.97650   1.00
O2       0.52350    0.52350    0.91180   1.00
O2       0.41180    0.47650    0.97650   1.00
O2       0.47650    0.41180    0.97650   1.00
O2       0.47650    0.47650    0.91180   1.00
C1       0.50000    0.50000    1.10520   1.00
C1       0.50000    0.60520    1.00000   1.00
C1       0.39480    0.50000    1.00000   1.00
C1       0.60520    0.50000    1.00000   1.00
C1       0.50000    0.39480    1.00000   1.00
C1       0.50000    0.50000    0.89480   1.00
O1       0.50000    1.00000    0.50000   1.00
Zn1      0.46720    1.03280    0.53280   1.00
Zn1      0.53280    0.96720    0.53280   1.00
Zn1      0.53280    1.03280    0.46720   1.00
Zn1      0.46720    0.96720    0.46720   1.00
O2       0.47650    1.02350    0.58820   1.00
O2       0.47650    1.08820    0.52350   1.00
O2       0.41180    1.02350    0.52350   1.00
O2       0.52350    0.97650    0.58820   1.00
O2       0.58820    0.97650    0.52350   1.00
O2       0.52350    0.91180    0.52350   1.00
O2       0.52350    1.08820    0.47650   1.00
O2       0.58820    1.02350    0.47650   1.00
O2       0.52350    1.02350    0.41180   1.00
O2       0.41180    0.97650    0.47650   1.00
O2       0.47650    0.91180    0.47650   1.00
O2       0.47650    0.97650    0.41180   1.00
C1       0.50000    1.00000    0.60520   1.00
C1       0.50000    1.10520    0.50000   1.00
C1       0.39480    1.00000    0.50000   1.00
C1       0.60520    1.00000    0.50000   1.00
C1       0.50000    0.89480    0.50000   1.00
C1       0.50000    1.00000    0.39480   1.00
O1       1.00000    0.50000    0.50000   1.00
Zn1      0.96720    0.53280    0.53280   1.00
Zn1      1.03280    0.46720    0.53280   1.00
Zn1      1.03280    0.53280    0.46720   1.00
Zn1      0.96720    0.46720    0.46720   1.00
O2       0.97650    0.52350    0.58820   1.00
O2       0.97650    0.58820    0.52350   1.00
O2       0.91180    0.52350    0.52350   1.00
O2       1.02350    0.47650    0.58820   1.00
O2       1.08820    0.47650    0.52350   1.00
O2       1.02350    0.41180    0.52350   1.00
O2       1.02350    0.58820    0.47650   1.00
O2       1.08820    0.52350    0.47650   1.00
O2       1.02350    0.52350    0.41180   1.00
O2       0.91180    0.47650    0.47650   1.00
O2       0.97650    0.41180    0.47650   1.00
O2       0.97650    0.47650    0.41180   1.00
C1       1.00000    0.50000    0.60520   1.00
C1       1.00000    0.60520    0.50000   1.00
C1       0.89480    0.50000    0.50000   1.00
C1       1.10520    0.50000    0.50000   1.00
C1       1.00000    0.39480    0.50000   1.00
C1       1.00000    0.50000    0.39480   1.00
O1       0.50000    0.50000    0.50000   1.00
Zn1      0.53280    0.46720    0.46720   1.00
Zn1      0.46720    0.53280    0.46720   1.00
Zn1      0.46720    0.46720    0.53280   1.00
Zn1      0.53280    0.53280    0.53280   1.00
O2       0.52350    0.47650    0.41180   1.00
O2       0.52350    0.41180    0.47650   1.00
O2       0.58820    0.47650    0.47650   1.00
O2       0.47650    0.52350    0.41180   1.00
O2       0.41180    0.52350    0.47650   1.00
O2       0.47650    0.58820    0.47650   1.00
O2       0.47650    0.41180    0.52350   1.00
O2       0.41180    0.47650    0.52350   1.00
O2       0.47650    0.47650    0.58820   1.00
O2       0.58820    0.52350    0.52350   1.00
O2       0.52350    0.58820    0.52350   1.00
O2       0.52350    0.52350    0.58820   1.00
C1       0.50000    0.50000    0.39480   1.00
C1       0.50000    0.39480    0.50000   1.00
C1       0.60520    0.50000    0.50000   1.00
C1       0.39480    0.50000    0.50000   1.00
C1       0.50000    0.60520    0.50000   1.00
C1       0.50000    0.50000    0.60520   1.00
O1       1.00000    1.00000    0.50000   1.00
Zn1      1.03280    0.96720    0.46720   1.00
Zn1      0.96720    1.03280    0.46720   1.00
Zn1      0.96720    0.96720    0.53280   1.00
Zn1      1.03280    1.03280    0.53280   1.00
O2       1.02350    0.97650    0.41180   1.00
O2       1.02350    0.91180    0.47650   1.00
O2       1.08820    0.97650    0.47650   1.00
O2       0.97650    1.02350    0.41180   1.00
O2       0.91180    1.02350    0.47650   1.00
O2       0.97650    1.08820    0.47650   1.00
O2       0.97650    0.91180    0.52350   1.00
O2       0.91180    0.97650    0.52350   1.00
O2       0.97650    0.97650    0.58820   1.00
O2       1.08820    1.02350    0.52350   1.00
O2       1.02350    1.08820    0.52350   1.00
O2       1.02350    1.02350    0.58820   1.00
C1       1.00000    1.00000    0.39480   1.00
C1       1.00000    0.89480    0.50000   1.00
C1       1.10520    1.00000    0.50000   1.00
C1       0.89480    1.00000    0.50000   1.00
C1       1.00000    1.10520    0.50000   1.00
C1       1.00000    1.00000    0.60520   1.00
O1       1.00000    0.50000    1.00000   1.00
Zn1      1.03280    0.46720    0.96720   1.00
Zn1      0.96720    0.53280    0.96720   1.00
Zn1      0.96720    0.46720    1.03280   1.00
Zn1      1.03280    0.53280    1.03280   1.00
O2       1.02350    0.47650    0.91180   1.00
O2       1.02350    0.41180    0.97650   1.00
O2       1.08820    0.47650    0.97650   1.00
O2       0.97650    0.52350    0.91180   1.00
O2       0.91180    0.52350    0.97650   1.00
O2       0.97650    0.58820    0.97650   1.00
O2       0.97650    0.41180    1.02350   1.00
O2       0.91180    0.47650    1.02350   1.00
O2       0.97650    0.47650    1.08820   1.00
O2       1.08820    0.52350    1.02350   1.00
O2       1.02350    0.58820    1.02350   1.00
O2       1.02350    0.52350    1.08820   1.00
C1       1.00000    0.50000    0.89480   1.00
C1       1.00000    0.39480    1.00000   1.00
C1       1.10520    0.50000    1.00000   1.00
C1       0.89480    0.50000    1.00000   1.00
C1       1.00000    0.60520    1.00000   1.00
C1       1.00000    0.50000    1.10520   1.00
O1       0.50000    1.00000    1.00000   1.00
Zn1      0.53280    0.96720    0.96720   1.00
Zn1      0.46720    1.03280    0.96720   1.00
Zn1      0.46720    0.96720    1.03280   1.00
Zn1      0.53280    1.03280    1.03280   1.00
O2       0.52350    0.97650    0.91180   1.00
O2       0.52350    0.91180    0.97650   1.00
O2       0.58820    0.97650    0.97650   1.00
O2       0.47650    1.02350    0.91180   1.00
O2       0.41180    1.02350    0.97650   1.00
O2       0.47650    1.08820    0.97650   1.00
O2       0.47650    0.91180    1.02350   1.00
O2       0.41180    0.97650    1.02350   1.00
O2       0.47650    0.97650    1.08820   1.00
O2       0.58820    1.02350    1.02350   1.00
O2       0.52350    1.08820    1.02350   1.00
O2       0.52350    1.02350    1.08820   1.00
C1       0.50000    1.00000    0.89480   1.00
C1       0.50000    0.89480    1.00000   1.00
C1       0.60520    1.00000    1.00000   1.00
C1       0.39480    1.00000    1.00000   1.00
C1       0.50000    1.10520    1.00000   1.00
C1       0.50000    1.00000    1.10520   1.00
C2       0.75299    0.74995    0.89757   1.00
C3a      0.78288    0.73190    0.91884   1.00
H1       0.80689    0.71793    0.90369   1.00
C3a      0.72191    0.76802    0.91704   1.00
H1       0.69882    0.78196    0.90051   1.00
C3b      0.78203    0.73172    0.95938   1.00
C5       0.81464    0.71205    0.98144   1.00
H2       0.80277    0.68821    0.99984   1.00
H2       0.83682    0.69925    0.96161   1.00
H2       0.82955    0.73345    1.00060   1.00
C3b      0.72039    0.76824    0.95756   1.00
C5       0.68655    0.78793    0.97767   1.00
H2       0.69733    0.81179    0.99670   1.00
H2       0.66556    0.80071    0.95655   1.00
H2       0.67055    0.76655    0.99594   1.00
C4       0.75062    0.74999    0.97873   1.00
C4       0.74938    0.75001    1.02127   1.00
C3b      0.73054    0.71919    1.04101   1.00
C5       0.71148    0.68594    1.01937   1.00
H2       0.73340    0.67046    1.00129   1.00
H2       0.69809    0.66436    1.03949   1.00
H2       0.68819    0.69725    0.99995   1.00
C3b      0.76704    0.78086    1.04204   1.00
C5       0.78733    0.81408    1.02152   1.00
H2       0.76649    0.82954    1.00217   1.00
H2       0.79952    0.83569    1.04235   1.00
H2       0.81171    0.80275    1.00350   1.00
C3a      0.72955    0.71955    1.08155   1.00
H1       0.71514    0.69599    1.09700   1.00
C3a      0.76566    0.78054    1.08257   1.00
H1       0.77914    0.80411    1.09881   1.00
C2       0.74701    0.75005    1.10243   1.00
C2       0.74995    0.89757    0.75299   1.00
C3a      0.73190    0.91884    0.78288   1.00
H1       0.71793    0.90369    0.80689   1.00
C3a      0.76802    0.91704    0.72191   1.00
H1       0.78196    0.90051    0.69882   1.00
C3b      0.73172    0.95938    0.78203   1.00
C5       0.71205    0.98144    0.81464   1.00
H2       0.68821    0.99984    0.80277   1.00
H2       0.69925    0.96161    0.83682   1.00
H2       0.73345    1.00060    0.82955   1.00
C3b      0.76824    0.95756    0.72039   1.00
C5       0.78793    0.97767    0.68655   1.00
H2       0.81179    0.99670    0.69733   1.00
H2       0.80071    0.95655    0.66556   1.00
H2       0.76655    0.99594    0.67055   1.00
C4       0.74999    0.97873    0.75062   1.00
C4       0.75001    1.02127    0.74938   1.00
C3b      0.71919    1.04101    0.73054   1.00
C5       0.68594    1.01937    0.71148   1.00
H2       0.67046    1.00129    0.73340   1.00
H2       0.66436    1.03949    0.69809   1.00
H2       0.69725    0.99995    0.68819   1.00
C3b      0.78086    1.04204    0.76704   1.00
C5       0.81408    1.02152    0.78733   1.00
H2       0.82954    1.00217    0.76649   1.00
H2       0.83569    1.04235    0.79952   1.00
H2       0.80275    1.00350    0.81171   1.00
C3a      0.71955    1.08155    0.72955   1.00
H1       0.69599    1.09700    0.71514   1.00
C3a      0.78054    1.08257    0.76566   1.00
H1       0.80411    1.09881    0.77914   1.00
C2       0.75005    1.10243    0.74701   1.00
C2       0.60243    0.75299    0.75005   1.00
C3a      0.58116    0.78288    0.76810   1.00
H1       0.59631    0.80689    0.78207   1.00
C3a      0.58296    0.72191    0.73198   1.00
H1       0.59949    0.69882    0.71804   1.00
C3b      0.54062    0.78203    0.76828   1.00
C5       0.51856    0.81464    0.78795   1.00
H2       0.50016    0.80277    0.81179   1.00
H2       0.53839    0.83682    0.80075   1.00
H2       0.49940    0.82955    0.76655   1.00
C3b      0.54244    0.72039    0.73176   1.00
C5       0.52233    0.68655    0.71207   1.00
H2       0.50330    0.69733    0.68821   1.00
H2       0.54345    0.66556    0.69929   1.00
H2       0.50406    0.67055    0.73345   1.00
C4       0.52127    0.75062    0.75001   1.00
C4       0.47873    0.74938    0.74999   1.00
C3b      0.45899    0.73054    0.78081   1.00
C5       0.48063    0.71148    0.81406   1.00
H2       0.49871    0.73340    0.82954   1.00
H2       0.46051    0.69809    0.83564   1.00
H2       0.50005    0.68819    0.80275   1.00
C3b      0.45796    0.76704    0.71914   1.00
C5       0.47848    0.78733    0.68592   1.00
H2       0.49783    0.76649    0.67046   1.00
H2       0.45765    0.79952    0.66431   1.00
H2       0.49650    0.81171    0.69725   1.00
C3a      0.41845    0.72955    0.78045   1.00
H1       0.40300    0.71514    0.80401   1.00
C3a      0.41743    0.76566    0.71946   1.00
H1       0.40119    0.77914    0.69589   1.00
C2       0.39757    0.74701    0.74995   1.00
C2       0.89757    0.75299    0.74995   1.00
C3a      0.91884    0.78288    0.73190   1.00
H1       0.90369    0.80689    0.71793   1.00
C3a      0.91704    0.72191    0.76802   1.00
H1       0.90051    0.69882    0.78196   1.00
C3b      0.95938    0.78203    0.73172   1.00
C5       0.98144    0.81464    0.71205   1.00
H2       0.99984    0.80277    0.68821   1.00
H2       0.96161    0.83682    0.69925   1.00
H2       1.00060    0.82955    0.73345   1.00
C3b      0.95756    0.72039    0.76824   1.00
C5       0.97767    0.68655    0.78793   1.00
H2       0.99670    0.69733    0.81179   1.00
H2       0.95655    0.66556    0.80071   1.00
H2       0.99594    0.67055    0.76655   1.00
C4       0.97873    0.75062    0.74999   1.00
C4       1.02127    0.74938    0.75001   1.00
C3b      1.04101    0.73054    0.71919   1.00
C5       1.01937    0.71148    0.68594   1.00
H2       1.00129    0.73340    0.67046   1.00
H2       1.03949    0.69809    0.66436   1.00
H2       0.99995    0.68819    0.69725   1.00
C3b      1.04204    0.76704    0.78086   1.00
C5       1.02152    0.78733    0.81408   1.00
H2       1.00217    0.76649    0.82954   1.00
H2       1.04235    0.79952    0.83569   1.00
H2       1.00350    0.81171    0.80275   1.00
C3a      1.08155    0.72955    0.71955   1.00
H1       1.09700    0.71514    0.69599   1.00
C3a      1.08257    0.76566    0.78054   1.00
H1       1.09881    0.77914    0.80411   1.00
C2       1.10243    0.74701    0.75005   1.00
C2       0.75005    0.60243    0.75299   1.00
C3a      0.76810    0.58116    0.78288   1.00
H1       0.78207    0.59631    0.80689   1.00
C3a      0.73198    0.58296    0.72191   1.00
H1       0.71804    0.59949    0.69882   1.00
C3b      0.76828    0.54062    0.78203   1.00
C5       0.78795    0.51856    0.81464   1.00
H2       0.81179    0.50016    0.80277   1.00
H2       0.80075    0.53839    0.83682   1.00
H2       0.76655    0.49940    0.82955   1.00
C3b      0.73176    0.54244    0.72039   1.00
C5       0.71207    0.52233    0.68655   1.00
H2       0.68821    0.50330    0.69733   1.00
H2       0.69929    0.54345    0.66556   1.00
H2       0.73345    0.50406    0.67055   1.00
C4       0.75001    0.52127    0.75062   1.00
C4       0.74999    0.47873    0.74938   1.00
C3b      0.78081    0.45899    0.73054   1.00
C5       0.81406    0.48063    0.71148   1.00
H2       0.82954    0.49871    0.73340   1.00
H2       0.83564    0.46051    0.69809   1.00
H2       0.80275    0.50005    0.68819   1.00
C3b      0.71914    0.45796    0.76704   1.00
C5       0.68592    0.47848    0.78733   1.00
H2       0.67046    0.49783    0.76649   1.00
H2       0.66431    0.45765    0.79952   1.00
H2       0.69725    0.49650    0.81171   1.00
C3a      0.78045    0.41845    0.72955   1.00
H1       0.80401    0.40300    0.71514   1.00
C3a      0.71946    0.41743    0.76566   1.00
H1       0.69589    0.40119    0.77914   1.00
C2       0.74995    0.39757    0.74701   1.00
C2       0.75299    0.75005    0.60243   1.00
C3a      0.78288    0.76810    0.58116   1.00
H1       0.80689    0.78207    0.59631   1.00
C3a      0.72191    0.73198    0.58296   1.00
H1       0.69882    0.71804    0.59949   1.00
C3b      0.78203    0.76828    0.54062   1.00
C5       0.81464    0.78795    0.51856   1.00
H2       0.80277    0.81179    0.50016   1.00
H2       0.83682    0.80075    0.53839   1.00
H2       0.82955    0.76655    0.49940   1.00
C3b      0.72039    0.73176    0.54244   1.00
C5       0.68655    0.71207    0.52233   1.00
H2       0.69733    0.68821    0.50330   1.00
H2       0.66556    0.69929    0.54345   1.00
H2       0.67055    0.73345    0.50406   1.00
C4       0.75062    0.75001    0.52127   1.00
C4       0.74938    0.74999    0.47873   1.00
C3b      0.73054    0.78081    0.45899   1.00
C5       0.71148    0.81406    0.48063   1.00
H2       0.73340    0.82954    0.49871   1.00
H2       0.69809    0.83564    0.46051   1.00
H2       0.68819    0.80275    0.50005   1.00
C3b      0.76704    0.71914    0.45796   1.00
C5       0.78733    0.68592    0.47848   1.00
H2       0.76649    0.67046    0.49783   1.00
H2       0.79952    0.66431    0.45765   1.00
H2       0.81171    0.69725    0.49650   1.00
C3a      0.72955    0.78045    0.41845   1.00
H1       0.71514    0.80401    0.40300   1.00
C3a      0.76566    0.71946    0.41743   1.00
H1       0.77914    0.69589    0.40119   1.00
C2       0.74701    0.74995    0.39757   1.00
C2       0.25299    0.24995    0.89757   1.00
C3a      0.28288    0.23190    0.91884   1.00
H1       0.30689    0.21793    0.90369   1.00
C3a      0.22191    0.26802    0.91704   1.00
H1       0.19882    0.28196    0.90051   1.00
C3b      0.28203    0.23172    0.95938   1.00
C5       0.31464    0.21205    0.98144   1.00
H2       0.30277    0.18821    0.99984   1.00
H2       0.33682    0.19925    0.96161   1.00
H2       0.32955    0.23345    1.00060   1.00
C3b      0.22039    0.26824    0.95756   1.00
C5       0.18655    0.28793    0.97767   1.00
H2       0.19733    0.31179    0.99670   1.00
H2       0.16556    0.30071    0.95655   1.00
H2       0.17055    0.26655    0.99594   1.00
C4       0.25062    0.24999    0.97873   1.00
C4       0.24938    0.25001    1.02127   1.00
C3b      0.23054    0.21919    1.04101   1.00
C5       0.21148    0.18594    1.01937   1.00
H2       0.23340    0.17046    1.00129   1.00
H2       0.19809    0.16436    1.03949   1.00
H2       0.18819    0.19725    0.99995   1.00
C3b      0.26704    0.28086    1.04204   1.00
C5       0.28733    0.31408    1.02152   1.00
H2       0.26649    0.32954    1.00217   1.00
H2       0.29952    0.33569    1.04235   1.00
H2       0.31171    0.30275    1.00350   1.00
C3a      0.22955    0.21955    1.08155   1.00
H1       0.21514    0.19599    1.09700   1.00
C3a      0.26566    0.28054    1.08257   1.00
H1       0.27914    0.30411    1.09881   1.00
C2       0.24701    0.25005    1.10243   1.00
C2       0.24995    0.39757    0.75299   1.00
C3a      0.23190    0.41884    0.78288   1.00
H1       0.21793    0.40369    0.80689   1.00
C3a      0.26802    0.41704    0.72191   1.00
H1       0.28196    0.40051    0.69882   1.00
C3b      0.23172    0.45938    0.78203   1.00
C5       0.21205    0.48144    0.81464   1.00
H2       0.18821    0.49984    0.80277   1.00
H2       0.19925    0.46161    0.83682   1.00
H2       0.23345    0.50060    0.82955   1.00
C3b      0.26824    0.45756    0.72039   1.00
C5       0.28793    0.47767    0.68655   1.00
H2       0.31179    0.49670    0.69733   1.00
H2       0.30071    0.45655    0.66556   1.00
H2       0.26655    0.49594    0.67055   1.00
C4       0.24999    0.47873    0.75062   1.00
C4       0.25001    0.52127    0.74938   1.00
C3b      0.21919    0.54101    0.73054   1.00
C5       0.18594    0.51937    0.71148   1.00
H2       0.17046    0.50129    0.73340   1.00
H2       0.16436    0.53949    0.69809   1.00
H2       0.19725    0.49995    0.68819   1.00
C3b      0.28086    0.54204    0.76704   1.00
C5       0.31408    0.52152    0.78733   1.00
H2       0.32954    0.50217    0.76649   1.00
H2       0.33569    0.54235    0.79952   1.00
H2       0.30275    0.50350    0.81171   1.00
C3a      0.21955    0.58155    0.72955   1.00
H1       0.19599    0.59700    0.71514   1.00
C3a      0.28054    0.58257    0.76566   1.00
H1       0.30411    0.59881    0.77914   1.00
C2       0.25005    0.60243    0.74701   1.00
C2       0.10243    0.25299    0.75005   1.00
C3a      0.08116    0.28288    0.76810   1.00
H1       0.09631    0.30689    0.78207   1.00
C3a      0.08296    0.22191    0.73198   1.00
H1       0.09949    0.19882    0.71804   1.00
C3b      0.04062    0.28203    0.76828   1.00
C5       0.01856    0.31464    0.78795   1.00
H2       0.00016    0.30277    0.81179   1.00
H2       0.03839    0.33682    0.80075   1.00
H2       -0.00060   0.32955    0.76655   1.00
C3b      0.04244    0.22039    0.73176   1.00
C5       0.02233    0.18655    0.71207   1.00
H2       0.00330    0.19733    0.68821   1.00
H2       0.04345    0.16556    0.69929   1.00
H2       0.00406    0.17055    0.73345   1.00
C4       0.02127    0.25062    0.75001   1.00
C4       -0.02127   0.24938    0.74999   1.00
C3b      -0.04101   0.23054    0.78081   1.00
C5       -0.01937   0.21148    0.81406   1.00
H2       -0.00129   0.23340    0.82954   1.00
H2       -0.03949   0.19809    0.83564   1.00
H2       0.00005    0.18819    0.80275   1.00
C3b      -0.04204   0.26704    0.71914   1.00
C5       -0.02152   0.28733    0.68592   1.00
H2       -0.00217   0.26649    0.67046   1.00
H2       -0.04235   0.29952    0.66431   1.00
H2       -0.00350   0.31171    0.69725   1.00
C3a      -0.08155   0.22955    0.78045   1.00
H1       -0.09700   0.21514    0.80401   1.00
C3a      -0.08257   0.26566    0.71946   1.00
H1       -0.09881   0.27914    0.69589   1.00
C2       -0.10243   0.24701    0.74995   1.00
C2       0.39757    0.25299    0.74995   1.00
C3a      0.41884    0.28288    0.73190   1.00
H1       0.40369    0.30689    0.71793   1.00
C3a      0.41704    0.22191    0.76802   1.00
H1       0.40051    0.19882    0.78196   1.00
C3b      0.45938    0.28203    0.73172   1.00
C5       0.48144    0.31464    0.71205   1.00
H2       0.49984    0.30277    0.68821   1.00
H2       0.46161    0.33682    0.69925   1.00
H2       0.50060    0.32955    0.73345   1.00
C3b      0.45756    0.22039    0.76824   1.00
C5       0.47767    0.18655    0.78793   1.00
H2       0.49670    0.19733    0.81179   1.00
H2       0.45655    0.16556    0.80071   1.00
H2       0.49594    0.17055    0.76655   1.00
C4       0.47873    0.25062    0.74999   1.00
C4       0.52127    0.24938    0.75001   1.00
C3b      0.54101    0.23054    0.71919   1.00
C5       0.51937    0.21148    0.68594   1.00
H2       0.50129    0.23340    0.67046   1.00
H2       0.53949    0.19809    0.66436   1.00
H2       0.49995    0.18819    0.69725   1.00
C3b      0.54204    0.26704    0.78086   1.00
C5       0.52152    0.28733    0.81408   1.00
H2       0.50217    0.26649    0.82954   1.00
H2       0.54235    0.29952    0.83569   1.00
H2       0.50350    0.31171    0.80275   1.00
C3a      0.58155    0.22955    0.71955   1.00
H1       0.59700    0.21514    0.69599   1.00
C3a      0.58257    0.26566    0.78054   1.00
H1       0.59881    0.27914    0.80411   1.00
C2       0.60243    0.24701    0.75005   1.00
C2       0.25005    0.10243    0.75299   1.00
C3a      0.26810    0.08116    0.78288   1.00
H1       0.28207    0.09631    0.80689   1.00
C3a      0.23198    0.08296    0.72191   1.00
H1       0.21804    0.09949    0.69882   1.00
C3b      0.26828    0.04062    0.78203   1.00
C5       0.28795    0.01856    0.81464   1.00
H2       0.31179    0.00016    0.80277   1.00
H2       0.30075    0.03839    0.83682   1.00
H2       0.26655    -0.00060   0.82955   1.00
C3b      0.23176    0.04244    0.72039   1.00
C5       0.21207    0.02233    0.68655   1.00
H2       0.18821    0.00330    0.69733   1.00
H2       0.19929    0.04345    0.66556   1.00
H2       0.23345    0.00406    0.67055   1.00
C4       0.25001    0.02127    0.75062   1.00
C4       0.24999    -0.02127   0.74938   1.00
C3b      0.28081    -0.04101   0.73054   1.00
C5       0.31406    -0.01937   0.71148   1.00
H2       0.32954    -0.00129   0.73340   1.00
H2       0.33564    -0.03949   0.69809   1.00
H2       0.30275    0.00005    0.68819   1.00
C3b      0.21914    -0.04204   0.76704   1.00
C5       0.18592    -0.02152   0.78733   1.00
H2       0.17046    -0.00217   0.76649   1.00
H2       0.16431    -0.04235   0.79952   1.00
H2       0.19725    -0.00350   0.81171   1.00
C3a      0.28045    -0.08155   0.72955   1.00
H1       0.30401    -0.09700   0.71514   1.00
C3a      0.21946    -0.08257   0.76566   1.00
H1       0.19589    -0.09881   0.77914   1.00
C2       0.24995    -0.10243   0.74701   1.00
C2       0.25299    0.25005    0.60243   1.00
C3a      0.28288    0.26810    0.58116   1.00
H1       0.30689    0.28207    0.59631   1.00
C3a      0.22191    0.23198    0.58296   1.00
H1       0.19882    0.21804    0.59949   1.00
C3b      0.28203    0.26828    0.54062   1.00
C5       0.31464    0.28795    0.51856   1.00
H2       0.30277    0.31179    0.50016   1.00
H2       0.33682    0.30075    0.53839   1.00
H2       0.32955    0.26655    0.49940   1.00
C3b      0.22039    0.23176    0.54244   1.00
C5       0.18655    0.21207    0.52233   1.00
H2       0.19733    0.18821    0.50330   1.00
H2       0.16556    0.19929    0.54345   1.00
H2       0.17055    0.23345    0.50406   1.00
C4       0.25062    0.25001    0.52127   1.00
C4       0.24938    0.24999    0.47873   1.00
C3b      0.23054    0.28081    0.45899   1.00
C5       0.21148    0.31406    0.48063   1.00
H2       0.23340    0.32954    0.49871   1.00
H2       0.19809    0.33564    0.46051   1.00
H2       0.18819    0.30275    0.50005   1.00
C3b      0.26704    0.21914    0.45796   1.00
C5       0.28733    0.18592    0.47848   1.00
H2       0.26649    0.17046    0.49783   1.00
H2       0.29952    0.16431    0.45765   1.00
H2       0.31171    0.19725    0.49650   1.00
C3a      0.22955    0.28045    0.41845   1.00
H1       0.21514    0.30401    0.40300   1.00
C3a      0.26566    0.21946    0.41743   1.00
H1       0.27914    0.19589    0.40119   1.00
C2       0.24701    0.24995    0.39757   1.00
C2       0.25299    0.74995    0.39757   1.00
C3a      0.28288    0.73190    0.41884   1.00
H1       0.30689    0.71793    0.40369   1.00
C3a      0.22191    0.76802    0.41704   1.00
H1       0.19882    0.78196    0.40051   1.00
C3b      0.28203    0.73172    0.45938   1.00
C5       0.31464    0.71205    0.48144   1.00
H2       0.30277    0.68821    0.49984   1.00
H2       0.33682    0.69925    0.46161   1.00
H2       0.32955    0.73345    0.50060   1.00
C3b      0.22039    0.76824    0.45756   1.00
C5       0.18655    0.78793    0.47767   1.00
H2       0.19733    0.81179    0.49670   1.00
H2       0.16556    0.80071    0.45655   1.00
H2       0.17055    0.76655    0.49594   1.00
C4       0.25062    0.74999    0.47873   1.00
C4       0.24938    0.75001    0.52127   1.00
C3b      0.23054    0.71919    0.54101   1.00
C5       0.21148    0.68594    0.51937   1.00
H2       0.23340    0.67046    0.50129   1.00
H2       0.19809    0.66436    0.53949   1.00
H2       0.18819    0.69725    0.49995   1.00
C3b      0.26704    0.78086    0.54204   1.00
C5       0.28733    0.81408    0.52152   1.00
H2       0.26649    0.82954    0.50217   1.00
H2       0.29952    0.83569    0.54235   1.00
H2       0.31171    0.80275    0.50350   1.00
C3a      0.22955    0.71955    0.58155   1.00
H1       0.21514    0.69599    0.59700   1.00
C3a      0.26566    0.78054    0.58257   1.00
H1       0.27914    0.80411    0.59881   1.00
C2       0.24701    0.75005    0.60243   1.00
C2       0.24995    0.89757    0.25299   1.00
C3a      0.23190    0.91884    0.28288   1.00
H1       0.21793    0.90369    0.30689   1.00
C3a      0.26802    0.91704    0.22191   1.00
H1       0.28196    0.90051    0.19882   1.00
C3b      0.23172    0.95938    0.28203   1.00
C5       0.21205    0.98144    0.31464   1.00
H2       0.18821    0.99984    0.30277   1.00
H2       0.19925    0.96161    0.33682   1.00
H2       0.23345    1.00060    0.32955   1.00
C3b      0.26824    0.95756    0.22039   1.00
C5       0.28793    0.97767    0.18655   1.00
H2       0.31179    0.99670    0.19733   1.00
H2       0.30071    0.95655    0.16556   1.00
H2       0.26655    0.99594    0.17055   1.00
C4       0.24999    0.97873    0.25062   1.00
C4       0.25001    1.02127    0.24938   1.00
C3b      0.21919    1.04101    0.23054   1.00
C5       0.18594    1.01937    0.21148   1.00
H2       0.17046    1.00129    0.23340   1.00
H2       0.16436    1.03949    0.19809   1.00
H2       0.19725    0.99995    0.18819   1.00
C3b      0.28086    1.04204    0.26704   1.00
C5       0.31408    1.02152    0.28733   1.00
H2       0.32954    1.00217    0.26649   1.00
H2       0.33569    1.04235    0.29952   1.00
H2       0.30275    1.00350    0.31171   1.00
C3a      0.21955    1.08155    0.22955   1.00
H1       0.19599    1.09700    0.21514   1.00
C3a      0.28054    1.08257    0.26566   1.00
H1       0.30411    1.09881    0.27914   1.00
C2       0.25005    1.10243    0.24701   1.00
C2       0.10243    0.75299    0.25005   1.00
C3a      0.08116    0.78288    0.26810   1.00
H1       0.09631    0.80689    0.28207   1.00
C3a      0.08296    0.72191    0.23198   1.00
H1       0.09949    0.69882    0.21804   1.00
C3b      0.04062    0.78203    0.26828   1.00
C5       0.01856    0.81464    0.28795   1.00
H2       0.00016    0.80277    0.31179   1.00
H2       0.03839    0.83682    0.30075   1.00
H2       -0.00060   0.82955    0.26655   1.00
C3b      0.04244    0.72039    0.23176   1.00
C5       0.02233    0.68655    0.21207   1.00
H2       0.00330    0.69733    0.18821   1.00
H2       0.04345    0.66556    0.19929   1.00
H2       0.00406    0.67055    0.23345   1.00
C4       0.02127    0.75062    0.25001   1.00
C4       -0.02127   0.74938    0.24999   1.00
C3b      -0.04101   0.73054    0.28081   1.00
C5       -0.01937   0.71148    0.31406   1.00
H2       -0.00129   0.73340    0.32954   1.00
H2       -0.03949   0.69809    0.33564   1.00
H2       0.00005    0.68819    0.30275   1.00
C3b      -0.04204   0.76704    0.21914   1.00
C5       -0.02152   0.78733    0.18592   1.00
H2       -0.00217   0.76649    0.17046   1.00
H2       -0.04235   0.79952    0.16431   1.00
H2       -0.00350   0.81171    0.19725   1.00
C3a      -0.08155   0.72955    0.28045   1.00
H1       -0.09700   0.71514    0.30401   1.00
C3a      -0.08257   0.76566    0.21946   1.00
H1       -0.09881   0.77914    0.19589   1.00
C2       -0.10243   0.74701    0.24995   1.00
C2       0.39757    0.75299    0.24995   1.00
C3a      0.41884    0.78288    0.23190   1.00
H1       0.40369    0.80689    0.21793   1.00
C3a      0.41704    0.72191    0.26802   1.00
H1       0.40051    0.69882    0.28196   1.00
C3b      0.45938    0.78203    0.23172   1.00
C5       0.48144    0.81464    0.21205   1.00
H2       0.49984    0.80277    0.18821   1.00
H2       0.46161    0.83682    0.19925   1.00
H2       0.50060    0.82955    0.23345   1.00
C3b      0.45756    0.72039    0.26824   1.00
C5       0.47767    0.68655    0.28793   1.00
H2       0.49670    0.69733    0.31179   1.00
H2       0.45655    0.66556    0.30071   1.00
H2       0.49594    0.67055    0.26655   1.00
C4       0.47873    0.75062    0.24999   1.00
C4       0.52127    0.74938    0.25001   1.00
C3b      0.54101    0.73054    0.21919   1.00
C5       0.51937    0.71148    0.18594   1.00
H2       0.50129    0.73340    0.17046   1.00
H2       0.53949    0.69809    0.16436   1.00
H2       0.49995    0.68819    0.19725   1.00
C3b      0.54204    0.76704    0.28086   1.00
C5       0.52152    0.78733    0.31408   1.00
H2       0.50217    0.76649    0.32954   1.00
H2       0.54235    0.79952    0.33569   1.00
H2       0.50350    0.81171    0.30275   1.00
C3a      0.58155    0.72955    0.21955   1.00
H1       0.59700    0.71514    0.19599   1.00
C3a      0.58257    0.76566    0.28054   1.00
H1       0.59881    0.77914    0.30411   1.00
C2       0.60243    0.74701    0.25005   1.00
C2       0.25005    0.60243    0.25299   1.00
C3a      0.26810    0.58116    0.28288   1.00
H1       0.28207    0.59631    0.30689   1.00
C3a      0.23198    0.58296    0.22191   1.00
H1       0.21804    0.59949    0.19882   1.00
C3b      0.26828    0.54062    0.28203   1.00
C5       0.28795    0.51856    0.31464   1.00
H2       0.31179    0.50016    0.30277   1.00
H2       0.30075    0.53839    0.33682   1.00
H2       0.26655    0.49940    0.32955   1.00
C3b      0.23176    0.54244    0.22039   1.00
C5       0.21207    0.52233    0.18655   1.00
H2       0.18821    0.50330    0.19733   1.00
H2       0.19929    0.54345    0.16556   1.00
H2       0.23345    0.50406    0.17055   1.00
C4       0.25001    0.52127    0.25062   1.00
C4       0.24999    0.47873    0.24938   1.00
C3b      0.28081    0.45899    0.23054   1.00
C5       0.31406    0.48063    0.21148   1.00
H2       0.32954    0.49871    0.23340   1.00
H2       0.33564    0.46051    0.19809   1.00
H2       0.30275    0.50005    0.18819   1.00
C3b      0.21914    0.45796    0.26704   1.00
C5       0.18592    0.47848    0.28733   1.00
H2       0.17046    0.49783    0.26649   1.00
H2       0.16431    0.45765    0.29952   1.00
H2       0.19725    0.49650    0.31171   1.00
C3a      0.28045    0.41845    0.22955   1.00
H1       0.30401    0.40300    0.21514   1.00
C3a      0.21946    0.41743    0.26566   1.00
H1       0.19589    0.40119    0.27914   1.00
C2       0.24995    0.39757    0.24701   1.00
C2       0.25299    0.75005    0.10243   1.00
C3a      0.28288    0.76810    0.08116   1.00
H1       0.30689    0.78207    0.09631   1.00
C3a      0.22191    0.73198    0.08296   1.00
H1       0.19882    0.71804    0.09949   1.00
C3b      0.28203    0.76828    0.04062   1.00
C5       0.31464    0.78795    0.01856   1.00
H2       0.30277    0.81179    0.00016   1.00
H2       0.33682    0.80075    0.03839   1.00
H2       0.32955    0.76655    -0.00060   1.00
C3b      0.22039    0.73176    0.04244   1.00
C5       0.18655    0.71207    0.02233   1.00
H2       0.19733    0.68821    0.00330   1.00
H2       0.16556    0.69929    0.04345   1.00
H2       0.17055    0.73345    0.00406   1.00
C4       0.25062    0.75001    0.02127   1.00
C4       0.24938    0.74999    -0.02127   1.00
C3b      0.23054    0.78081    -0.04101   1.00
C5       0.21148    0.81406    -0.01937   1.00
H2       0.23340    0.82954    -0.00129   1.00
H2       0.19809    0.83564    -0.03949   1.00
H2       0.18819    0.80275    0.00005   1.00
C3b      0.26704    0.71914    -0.04204   1.00
C5       0.28733    0.68592    -0.02152   1.00
H2       0.26649    0.67046    -0.00217   1.00
H2       0.29952    0.66431    -0.04235   1.00
H2       0.31171    0.69725    -0.00350   1.00
C3a      0.22955    0.78045    -0.08155   1.00
H1       0.21514    0.80401    -0.09700   1.00
C3a      0.26566    0.71946    -0.08257   1.00
H1       0.27914    0.69589    -0.09881   1.00
C2       0.24701    0.74995    -0.10243   1.00
C2       0.75299    0.24995    0.39757   1.00
C3a      0.78288    0.23190    0.41884   1.00
H1       0.80689    0.21793    0.40369   1.00
C3a      0.72191    0.26802    0.41704   1.00
H1       0.69882    0.28196    0.40051   1.00
C3b      0.78203    0.23172    0.45938   1.00
C5       0.81464    0.21205    0.48144   1.00
H2       0.80277    0.18821    0.49984   1.00
H2       0.83682    0.19925    0.46161   1.00
H2       0.82955    0.23345    0.50060   1.00
C3b      0.72039    0.26824    0.45756   1.00
C5       0.68655    0.28793    0.47767   1.00
H2       0.69733    0.31179    0.49670   1.00
H2       0.66556    0.30071    0.45655   1.00
H2       0.67055    0.26655    0.49594   1.00
C4       0.75062    0.24999    0.47873   1.00
C4       0.74938    0.25001    0.52127   1.00
C3b      0.73054    0.21919    0.54101   1.00
C5       0.71148    0.18594    0.51937   1.00
H2       0.73340    0.17046    0.50129   1.00
H2       0.69809    0.16436    0.53949   1.00
H2       0.68819    0.19725    0.49995   1.00
C3b      0.76704    0.28086    0.54204   1.00
C5       0.78733    0.31408    0.52152   1.00
H2       0.76649    0.32954    0.50217   1.00
H2       0.79952    0.33569    0.54235   1.00
H2       0.81171    0.30275    0.50350   1.00
C3a      0.72955    0.21955    0.58155   1.00
H1       0.71514    0.19599    0.59700   1.00
C3a      0.76566    0.28054    0.58257   1.00
H1       0.77914    0.30411    0.59881   1.00
C2       0.74701    0.25005    0.60243   1.00
C2       0.74995    0.39757    0.25299   1.00
C3a      0.73190    0.41884    0.28288   1.00
H1       0.71793    0.40369    0.30689   1.00
C3a      0.76802    0.41704    0.22191   1.00
H1       0.78196    0.40051    0.19882   1.00
C3b      0.73172    0.45938    0.28203   1.00
C5       0.71205    0.48144    0.31464   1.00
H2       0.68821    0.49984    0.30277   1.00
H2       0.69925    0.46161    0.33682   1.00
H2       0.73345    0.50060    0.32955   1.00
C3b      0.76824    0.45756    0.22039   1.00
C5       0.78793    0.47767    0.18655   1.00
H2       0.81179    0.49670    0.19733   1.00
H2       0.80071    0.45655    0.16556   1.00
H2       0.76655    0.49594    0.17055   1.00
C4       0.74999    0.47873    0.25062   1.00
C4       0.75001    0.52127    0.24938   1.00
C3b      0.71919    0.54101    0.23054   1.00
C5       0.68594    0.51937    0.21148   1.00
H2       0.67046    0.50129    0.23340   1.00
H2       0.66436    0.53949    0.19809   1.00
H2       0.69725    0.49995    0.18819   1.00
C3b      0.78086    0.54204    0.26704   1.00
C5       0.81408    0.52152    0.28733   1.00
H2       0.82954    0.50217    0.26649   1.00
H2       0.83569    0.54235    0.29952   1.00
H2       0.80275    0.50350    0.31171   1.00
C3a      0.71955    0.58155    0.22955   1.00
H1       0.69599    0.59700    0.21514   1.00
C3a      0.78054    0.58257    0.26566   1.00
H1       0.80411    0.59881    0.27914   1.00
C2       0.75005    0.60243    0.24701   1.00
C2       0.60243    0.25299    0.25005   1.00
C3a      0.58116    0.28288    0.26810   1.00
H1       0.59631    0.30689    0.28207   1.00
C3a      0.58296    0.22191    0.23198   1.00
H1       0.59949    0.19882    0.21804   1.00
C3b      0.54062    0.28203    0.26828   1.00
C5       0.51856    0.31464    0.28795   1.00
H2       0.50016    0.30277    0.31179   1.00
H2       0.53839    0.33682    0.30075   1.00
H2       0.49940    0.32955    0.26655   1.00
C3b      0.54244    0.22039    0.23176   1.00
C5       0.52233    0.18655    0.21207   1.00
H2       0.50330    0.19733    0.18821   1.00
H2       0.54345    0.16556    0.19929   1.00
H2       0.50406    0.17055    0.23345   1.00
C4       0.52127    0.25062    0.25001   1.00
C4       0.47873    0.24938    0.24999   1.00
C3b      0.45899    0.23054    0.28081   1.00
C5       0.48063    0.21148    0.31406   1.00
H2       0.49871    0.23340    0.32954   1.00
H2       0.46051    0.19809    0.33564   1.00
H2       0.50005    0.18819    0.30275   1.00
C3b      0.45796    0.26704    0.21914   1.00
C5       0.47848    0.28733    0.18592   1.00
H2       0.49783    0.26649    0.17046   1.00
H2       0.45765    0.29952    0.16431   1.00
H2       0.49650    0.31171    0.19725   1.00
C3a      0.41845    0.22955    0.28045   1.00
H1       0.40300    0.21514    0.30401   1.00
C3a      0.41743    0.26566    0.21946   1.00
H1       0.40119    0.27914    0.19589   1.00
C2       0.39757    0.24701    0.24995   1.00
C2       0.89757    0.25299    0.24995   1.00
C3a      0.91884    0.28288    0.23190   1.00
H1       0.90369    0.30689    0.21793   1.00
C3a      0.91704    0.22191    0.26802   1.00
H1       0.90051    0.19882    0.28196   1.00
C3b      0.95938    0.28203    0.23172   1.00
C5       0.98144    0.31464    0.21205   1.00
H2       0.99984    0.30277    0.18821   1.00
H2       0.96161    0.33682    0.19925   1.00
H2       1.00060    0.32955    0.23345   1.00
C3b      0.95756    0.22039    0.26824   1.00
C5       0.97767    0.18655    0.28793   1.00
H2       0.99670    0.19733    0.31179   1.00
H2       0.95655    0.16556    0.30071   1.00
H2       0.99594    0.17055    0.26655   1.00
C4       0.97873    0.25062    0.24999   1.00
C4       1.02127    0.24938    0.25001   1.00
C3b      1.04101    0.23054    0.21919   1.00
C5       1.01937    0.21148    0.18594   1.00
H2       1.00129    0.23340    0.17046   1.00
H2       1.03949    0.19809    0.16436   1.00
H2       0.99995    0.18819    0.19725   1.00
C3b      1.04204    0.26704    0.28086   1.00
C5       1.02152    0.28733    0.31408   1.00
H2       1.00217    0.26649    0.32954   1.00
H2       1.04235    0.29952    0.33569   1.00
H2       1.00350    0.31171    0.30275   1.00
C3a      1.08155    0.22955    0.21955   1.00
H1       1.09700    0.21514    0.19599   1.00
C3a      1.08257    0.26566    0.28054   1.00
H1       1.09881    0.27914    0.30411   1.00
C2       1.10243    0.24701    0.25005   1.00
C2       0.75005    0.10243    0.25299   1.00
C3a      0.76810    0.08116    0.28288   1.00
H1       0.78207    0.09631    0.30689   1.00
C3a      0.73198    0.08296    0.22191   1.00
H1       0.71804    0.09949    0.19882   1.00
C3b      0.76828    0.04062    0.28203   1.00
C5       0.78795    0.01856    0.31464   1.00
H2       0.81179    0.00016    0.30277   1.00
H2       0.80075    0.03839    0.33682   1.00
H2       0.76655    -0.00060   0.32955   1.00
C3b      0.73176    0.04244    0.22039   1.00
C5       0.71207    0.02233    0.18655   1.00
H2       0.68821    0.00330    0.19733   1.00
H2       0.69929    0.04345    0.16556   1.00
H2       0.73345    0.00406    0.17055   1.00
C4       0.75001    0.02127    0.25062   1.00
C4       0.74999    -0.02127   0.24938   1.00
C3b      0.78081    -0.04101   0.23054   1.00
C5       0.81406    -0.01937   0.21148   1.00
H2       0.82954    -0.00129   0.23340   1.00
H2       0.83564    -0.03949   0.19809   1.00
H2       0.80275    0.00005    0.18819   1.00
C3b      0.71914    -0.04204   0.26704   1.00
C5       0.68592    -0.02152   0.28733   1.00
H2       0.67046    -0.00217   0.26649   1.00
H2       0.66431    -0.04235   0.29952   1.00
H2       0.69725    -0.00350   0.31171   1.00
C3a      0.78045    -0.08155   0.22955   1.00
H1       0.80401    -0.09700   0.21514   1.00
C3a      0.71946    -0.08257   0.26566   1.00
H1       0.69589    -0.09881   0.27914   1.00
C2       0.74995    -0.10243   0.24701   1.00
C2       0.75299    0.25005    0.10243   1.00
C3a      0.78288    0.26810    0.08116   1.00
H1       0.80689    0.28207    0.09631   1.00
C3a      0.72191    0.23198    0.08296   1.00
H1       0.69882    0.21804    0.09949   1.00
C3b      0.78203    0.26828    0.04062   1.00
C5       0.81464    0.28795    0.01856   1.00
H2       0.80277    0.31179    0.00016   1.00
H2       0.83682    0.30075    0.03839   1.00
H2       0.82955    0.26655    -0.00060   1.00
C3b      0.72039    0.23176    0.04244   1.00
C5       0.68655    0.21207    0.02233   1.00
H2       0.69733    0.18821    0.00330   1.00
H2       0.66556    0.19929    0.04345   1.00
H2       0.67055    0.23345    0.00406   1.00
C4       0.75062    0.25001    0.02127   1.00
C4       0.74938    0.24999    -0.02127   1.00
C3b      0.73054    0.28081    -0.04101   1.00
C5       0.71148    0.31406    -0.01937   1.00
H2       0.73340    0.32954    -0.00129   1.00
H2       0.69809    0.33564    -0.03949   1.00
H2       0.68819    0.30275    0.00005   1.00
C3b      0.76704    0.21914    -0.04204   1.00
C5       0.78733    0.18592    -0.02152   1.00
H2       0.76649    0.17046    -0.00217   1.00
H2       0.79952    0.16431    -0.04235   1.00
H2       0.81171    0.19725    -0.00350   1.00
C3a      0.72955    0.28045    -0.08155   1.00
H1       0.71514    0.30401    -0.09700   1.00
C3a      0.76566    0.21946    -0.08257   1.00
H1       0.77914    0.19589    -0.09881   1.00
C2       0.74701    0.24995    -0.10243   1.00
C2       1.00299    0.99995    1.14757   1.00
C3a      1.03288    0.98190    1.16884   1.00
H1       1.05689    0.96793    1.15369   1.00
C3a      0.97191    1.01802    1.16704   1.00
H1       0.94882    1.03196    1.15051   1.00
C3b      1.03203    0.98172    1.20938   1.00
C5       1.06464    0.96205    1.23144   1.00
H2       1.05277    0.93821    1.24984   1.00
H2       1.08682    0.94925    1.21161   1.00
H2       1.07955    0.98345    1.25060   1.00
C3b      0.97039    1.01824    1.20756   1.00
C5       0.93655    1.03793    1.22767   1.00
H2       0.94733    1.06179    1.24670   1.00
H2       0.91556    1.05071    1.20655   1.00
H2       0.92055    1.01655    1.24594   1.00
C4       1.00062    0.99999    1.22873   1.00
C4       0.99938    1.00001    1.27127   1.00
C3b      0.98054    0.96919    1.29101   1.00
C5       0.96148    0.93594    1.26937   1.00
H2       0.98340    0.92046    1.25129   1.00
H2       0.94809    0.91436    1.28949   1.00
H2       0.93819    0.94725    1.24995   1.00
C3b      1.01704    1.03086    1.29204   1.00
C5       1.03733    1.06408    1.27152   1.00
H2       1.01649    1.07954    1.25217   1.00
H2       1.04952    1.08569    1.29235   1.00
H2       1.06171    1.05275    1.25350   1.00
C3a      0.97955    0.96955    1.33155   1.00
H1       0.96514    0.94599    1.34700   1.00
C3a      1.01566    1.03054    1.33257   1.00
H1       1.02914    1.05411    1.34881   1.00
C2       0.99701    1.00005    1.35243   1.00
C2       0.99995    1.14757    1.00299   1.00
C3a      0.98190    1.16884    1.03288   1.00
H1       0.96793    1.15369    1.05689   1.00
C3a      1.01802    1.16704    0.97191   1.00
H1       1.03196    1.15051    0.94882   1.00
C3b      0.98172    1.20938    1.03203   1.00
C5       0.96205    1.23144    1.06464   1.00
H2       0.93821    1.24984    1.05277   1.00
H2       0.94925    1.21161    1.08682   1.00
H2       0.98345    1.25060    1.07955   1.00
C3b      1.01824    1.20756    0.97039   1.00
C5       1.03793    1.22767    0.93655   1.00
H2       1.06179    1.24670    0.94733   1.00
H2       1.05071    1.20655    0.91556   1.00
H2       1.01655    1.24594    0.92055   1.00
C4       0.99999    1.22873    1.00062   1.00
C4       1.00001    1.27127    0.99938   1.00
C3b      0.96919    1.29101    0.98054   1.00
C5       0.93594    1.26937    0.96148   1.00
H2       0.92046    1.25129    0.98340   1.00
H2       0.91436    1.28949    0.94809   1.00
H2       0.94725    1.24995    0.93819   1.00
C3b      1.03086    1.29204    1.01704   1.00
C5       1.06408    1.27152    1.03733   1.00
H2       1.07954    1.25217    1.01649   1.00
H2       1.08569    1.29235    1.04952   1.00
H2       1.05275    1.25350    1.06171   1.00
C3a      0.96955    1.33155    0.97955   1.00
H1       0.94599    1.34700    0.96514   1.00
C3a      1.03054    1.33257    1.01566   1.00
H1       1.05411    1.34881    1.02914   1.00
C2       1.00005    1.35243    0.99701   1.00
C2       0.85243    1.00299    1.00005   1.00
C3a      0.83116    1.03288    1.01810   1.00
H1       0.84631    1.05689    1.03207   1.00
C3a      0.83296    0.97191    0.98198   1.00
H1       0.84949    0.94882    0.96804   1.00
C3b      0.79062    1.03203    1.01828   1.00
C5       0.76856    1.06464    1.03795   1.00
H2       0.75016    1.05277    1.06179   1.00
H2       0.78839    1.08682    1.05075   1.00
H2       0.74940    1.07955    1.01655   1.00
C3b      0.79244    0.97039    0.98176   1.00
C5       0.77233    0.93655    0.96207   1.00
H2       0.75330    0.94733    0.93821   1.00
H2       0.79345    0.91556    0.94929   1.00
H2       0.75406    0.92055    0.98345   1.00
C4       0.77127    1.00062    1.00001   1.00
C4       0.72873    0.99938    0.99999   1.00
C3b      0.70899    0.98054    1.03081   1.00
C5       0.73063    0.96148    1.06406   1.00
H2       0.74871    0.98340    1.07954   1.00
H2       0.71051    0.94809    1.08564   1.00
H2       0.75005    0.93819    1.05275   1.00
C3b      0.70796    1.01704    0.96914   1.00
C5       0.72848    1.03733    0.93592   1.00
H2       0.74783    1.01649    0.92046   1.00
H2       0.70765    1.04952    0.91431   1.00
H2       0.74650    1.06171    0.94725   1.00
C3a      0.66845    0.97955    1.03045   1.00
H1       0.65300    0.96514    1.05401   1.00
C3a      0.66743    1.01566    0.96946   1.00
H1       0.65119    1.02914    0.94589   1.00
C2       0.64757    0.99701    0.99995   1.00
C2       1.14757    1.00299    0.99995   1.00
C3a      1.16884    1.03288    0.98190   1.00
H1       1.15369    1.05689    0.96793   1.00
C3a      1.16704    0.97191    1.01802   1.00
H1       1.15051    0.94882    1.03196   1.00
C3b      1.20938    1.03203    0.98172   1.00
C5       1.23144    1.06464    0.96205   1.00
H2       1.24984    1.05277    0.93821   1.00
H2       1.21161    1.08682    0.94925   1.00
H2       1.25060    1.07955    0.98345   1.00
C3b      1.20756    0.97039    1.01824   1.00
C5       1.22767    0.93655    1.03793   1.00
H2       1.24670    0.94733    1.06179   1.00
H2       1.20655    0.91556    1.05071   1.00
H2       1.24594    0.92055    1.01655   1.00
C4       1.22873    1.00062    0.99999   1.00
C4       1.27127    0.99938    1.00001   1.00
C3b      1.29101    0.98054    0.96919   1.00
C5       1.26937    0.96148    0.93594   1.00
H2       1.25129    0.98340    0.92046   1.00
H2       1.28949    0.94809    0.91436   1.00
H2       1.24995    0.93819    0.94725   1.00
C3b      1.29204    1.01704    1.03086   1.00
C5       1.27152    1.03733    1.06408   1.00
H2       1.25217    1.01649    1.07954   1.00
H2       1.29235    1.04952    1.08569   1.00
H2       1.25350    1.06171    1.05275   1.00
C3a      1.33155    0.97955    0.96955   1.00
H1       1.34700    0.96514    0.94599   1.00
C3a      1.33257    1.01566    1.03054   1.00
H1       1.34881    1.02914    1.05411   1.00
C2       1.35243    0.99701    1.00005   1.00
C2       1.00005    0.85243    1.00299   1.00
C3a      1.01810    0.83116    1.03288   1.00
H1       1.03207    0.84631    1.05689   1.00
C3a      0.98198    0.83296    0.97191   1.00
H1       0.96804    0.84949    0.94882   1.00
C3b      1.01828    0.79062    1.03203   1.00
C5       1.03795    0.76856    1.06464   1.00
H2       1.06179    0.75016    1.05277   1.00
H2       1.05075    0.78839    1.08682   1.00
H2       1.01655    0.74940    1.07955   1.00
C3b      0.98176    0.79244    0.97039   1.00
C5       0.96207    0.77233    0.93655   1.00
H2       0.93821    0.75330    0.94733   1.00
H2       0.94929    0.79345    0.91556   1.00
H2       0.98345    0.75406    0.92055   1.00
C4       1.00001    0.77127    1.00062   1.00
C4       0.99999    0.72873    0.99938   1.00
C3b      1.03081    0.70899    0.98054   1.00
C5       1.06406    0.73063    0.96148   1.00
H2       1.07954    0.74871    0.98340   1.00
H2       1.08564    0.71051    0.94809   1.00
H2       1.05275    0.75005    0.93819   1.00
C3b      0.96914    0.70796    1.01704   1.00
C5       0.93592    0.72848    1.03733   1.00
H2       0.92046    0.74783    1.01649   1.00
H2       0.91431    0.70765    1.04952   1.00
H2       0.94725    0.74650    1.06171   1.00
C3a      1.03045    0.66845    0.97955   1.00
H1       1.05401    0.65300    0.96514   1.00
C3a      0.96946    0.66743    1.01566   1.00
H1       0.94589    0.65119    1.02914   1.00
C2       0.99995    0.64757    0.99701   1.00
C2       1.00299    1.00005    0.85243   1.00
C3a      1.03288    1.01810    0.83116   1.00
H1       1.05689    1.03207    0.84631   1.00
C3a      0.97191    0.98198    0.83296   1.00
H1       0.94882    0.96804    0.84949   1.00
C3b      1.03203    1.01828    0.79062   1.00
C5       1.06464    1.03795    0.76856   1.00
H2       1.05277    1.06179    0.75016   1.00
H2       1.08682    1.05075    0.78839   1.00
H2       1.07955    1.01655    0.74940   1.00
C3b      0.97039    0.98176    0.79244   1.00
C5       0.93655    0.96207    0.77233   1.00
H2       0.94733    0.93821    0.75330   1.00
H2       0.91556    0.94929    0.79345   1.00
H2       0.92055    0.98345    0.75406   1.00
C4       1.00062    1.00001    0.77127   1.00
C4       0.99938    0.99999    0.72873   1.00
C3b      0.98054    1.03081    0.70899   1.00
C5       0.96148    1.06406    0.73063   1.00
H2       0.98340    1.07954    0.74871   1.00
H2       0.94809    1.08564    0.71051   1.00
H2       0.93819    1.05275    0.75005   1.00
C3b      1.01704    0.96914    0.70796   1.00
C5       1.03733    0.93592    0.72848   1.00
H2       1.01649    0.92046    0.74783   1.00
H2       1.04952    0.91431    0.70765   1.00
H2       1.06171    0.94725    0.74650   1.00
C3a      0.97955    1.03045    0.66845   1.00
H1       0.96514    1.05401    0.65300   1.00
C3a      1.01566    0.96946    0.66743   1.00
H1       1.02914    0.94589    0.65119   1.00
C2       0.99701    0.99995    0.64757   1.00
C2       0.50299    0.49995    1.14757   1.00
C3a      0.53288    0.48190    1.16884   1.00
H1       0.55689    0.46793    1.15369   1.00
C3a      0.47191    0.51802    1.16704   1.00
H1       0.44882    0.53196    1.15051   1.00
C3b      0.53203    0.48172    1.20938   1.00
C5       0.56464    0.46205    1.23144   1.00
H2       0.55277    0.43821    1.24984   1.00
H2       0.58682    0.44925    1.21161   1.00
H2       0.57955    0.48345    1.25060   1.00
C3b      0.47039    0.51824    1.20756   1.00
C5       0.43655    0.53793    1.22767   1.00
H2       0.44733    0.56179    1.24670   1.00
H2       0.41556    0.55071    1.20655   1.00
H2       0.42055    0.51655    1.24594   1.00
C4       0.50062    0.49999    1.22873   1.00
C4       0.49938    0.50001    1.27127   1.00
C3b      0.48054    0.46919    1.29101   1.00
C5       0.46148    0.43594    1.26937   1.00
H2       0.48340    0.42046    1.25129   1.00
H2       0.44809    0.41436    1.28949   1.00
H2       0.43819    0.44725    1.24995   1.00
C3b      0.51704    0.53086    1.29204   1.00
C5       0.53733    0.56408    1.27152   1.00
H2       0.51649    0.57954    1.25217   1.00
H2       0.54952    0.58569    1.29235   1.00
H2       0.56171    0.55275    1.25350   1.00
C3a      0.47955    0.46955    1.33155   1.00
H1       0.46514    0.44599    1.34700   1.00
C3a      0.51566    0.53054    1.33257   1.00
H1       0.52914    0.55411    1.34881   1.00
C2       0.49701    0.50005    1.35243   1.00
C2       0.49995    0.64757    1.00299   1.00
C3a      0.48190    0.66884    1.03288   1.00
H1       0.46793    0.65369    1.05689   1.00
C3a      0.51802    0.66704    0.97191   1.00
H1       0.53196    0.65051    0.94882   1.00
C3b      0.48172    0.70938    1.03203   1.00
C5       0.46205    0.73144    1.06464   1.00
H2       0.43821    0.74984    1.05277   1.00
H2       0.44925    0.71161    1.08682   1.00
H2       0.48345    0.75060    1.07955   1.00
C3b      0.51824    0.70756    0.97039   1.00
C5       0.53793    0.72767    0.93655   1.00
H2       0.56179    0.74670    0.94733   1.00
H2       0.55071    0.70655    0.91556   1.00
H2       0.51655    0.74594    0.92055   1.00
C4       0.49999    0.72873    1.00062   1.00
C4       0.50001    0.77127    0.99938   1.00
C3b      0.46919    0.79101    0.98054   1.00
C5       0.43594    0.76937    0.96148   1.00
H2       0.42046    0.75129    0.98340   1.00
H2       0.41436    0.78949    0.94809   1.00
H2       0.44725    0.74995    0.93819   1.00
C3b      0.53086    0.79204    1.01704   1.00
C5       0.56408    0.77152    1.03733   1.00
H2       0.57954    0.75217    1.01649   1.00
H2       0.58569    0.79235    1.04952   1.00
H2       0.55275    0.75350    1.06171   1.00
C3a      0.46955    0.83155    0.97955   1.00
H1       0.44599    0.84700    0.96514   1.00
C3a      0.53054    0.83257    1.01566   1.00
H1       0.55411    0.84881    1.02914   1.00
C2       0.50005    0.85243    0.99701   1.00
C2       0.35243    0.50299    1.00005   1.00
C3a      0.33116    0.53288    1.01810   1.00
H1       0.34631    0.55689    1.03207   1.00
C3a      0.33296    0.47191    0.98198   1.00
H1       0.34949    0.44882    0.96804   1.00
C3b      0.29062    0.53203    1.01828   1.00
C5       0.26856    0.56464    1.03795   1.00
H2       0.25016    0.55277    1.06179   1.00
H2       0.28839    0.58682    1.05075   1.00
H2       0.24940    0.57955    1.01655   1.00
C3b      0.29244    0.47039    0.98176   1.00
C5       0.27233    0.43655    0.96207   1.00
H2       0.25330    0.44733    0.93821   1.00
H2       0.29345    0.41556    0.94929   1.00
H2       0.25406    0.42055    0.98345   1.00
C4       0.27127    0.50062    1.00001   1.00
C4       0.22873    0.49938    0.99999   1.00
C3b      0.20899    0.48054    1.03081   1.00
C5       0.23063    0.46148    1.06406   1.00
H2       0.24871    0.48340    1.07954   1.00
H2       0.21051    0.44809    1.08564   1.00
H2       0.25005    0.43819    1.05275   1.00
C3b      0.20796    0.51704    0.96914   1.00
C5       0.22848    0.53733    0.93592   1.00
H2       0.24783    0.51649    0.92046   1.00
H2       0.20765    0.54952    0.91431   1.00
H2       0.24650    0.56171    0.94725   1.00
C3a      0.16845    0.47955    1.03045   1.00
H1       0.15300    0.46514    1.05401   1.00
C3a      0.16743    0.51566    0.96946   1.00
H1       0.15119    0.52914    0.94589   1.00
C2       0.14757    0.49701    0.99995   1.00
C2       0.64757    0.50299    0.99995   1.00
C3a      0.66884    0.53288    0.98190   1.00
H1       0.65369    0.55689    0.96793   1.00
C3a      0.66704    0.47191    1.01802   1.00
H1       0.65051    0.44882    1.03196   1.00
C3b      0.70938    0.53203    0.98172   1.00
C5       0.73144    0.56464    0.96205   1.00
H2       0.74984    0.55277    0.93821   1.00
H2       0.71161    0.58682    0.94925   1.00
H2       0.75060    0.57955    0.98345   1.00
C3b      0.70756    0.47039    1.01824   1.00
C5       0.72767    0.43655    1.03793   1.00
H2       0.74670    0.44733    1.06179   1.00
H2       0.70655    0.41556    1.05071   1.00
H2       0.74594    0.42055    1.01655   1.00
C4       0.72873    0.50062    0.99999   1.00
C4       0.77127    0.49938    1.00001   1.00
C3b      0.79101    0.48054    0.96919   1.00
C5       0.76937    0.46148    0.93594   1.00
H2       0.75129    0.48340    0.92046   1.00
H2       0.78949    0.44809    0.91436   1.00
H2       0.74995    0.43819    0.94725   1.00
C3b      0.79204    0.51704    1.03086   1.00
C5       0.77152    0.53733    1.06408   1.00
H2       0.75217    0.51649    1.07954   1.00
H2       0.79235    0.54952    1.08569   1.00
H2       0.75350    0.56171    1.05275   1.00
C3a      0.83155    0.47955    0.96955   1.00
H1       0.84700    0.46514    0.94599   1.00
C3a      0.83257    0.51566    1.03054   1.00
H1       0.84881    0.52914    1.05411   1.00
C2       0.85243    0.49701    1.00005   1.00
C2       0.50005    0.35243    1.00299   1.00
C3a      0.51810    0.33116    1.03288   1.00
H1       0.53207    0.34631    1.05689   1.00
C3a      0.48198    0.33296    0.97191   1.00
H1       0.46804    0.34949    0.94882   1.00
C3b      0.51828    0.29062    1.03203   1.00
C5       0.53795    0.26856    1.06464   1.00
H2       0.56179    0.25016    1.05277   1.00
H2       0.55075    0.28839    1.08682   1.00
H2       0.51655    0.24940    1.07955   1.00
C3b      0.48176    0.29244    0.97039   1.00
C5       0.46207    0.27233    0.93655   1.00
H2       0.43821    0.25330    0.94733   1.00
H2       0.44929    0.29345    0.91556   1.00
H2       0.48345    0.25406    0.92055   1.00
C4       0.50001    0.27127    1.00062   1.00
C4       0.49999    0.22873    0.99938   1.00
C3b      0.53081    0.20899    0.98054   1.00
C5       0.56406    0.23063    0.96148   1.00
H2       0.57954    0.24871    0.98340   1.00
H2       0.58564    0.21051    0.94809   1.00
H2       0.55275    0.25005    0.93819   1.00
C3b      0.46914    0.20796    1.01704   1.00
C5       0.43592    0.22848    1.03733   1.00
H2       0.42046    0.24783    1.01649   1.00
H2       0.41431    0.20765    1.04952   1.00
H2       0.44725    0.24650    1.06171   1.00
C3a      0.53045    0.16845    0.97955   1.00
H1       0.55401    0.15300    0.96514   1.00
C3a      0.46946    0.16743    1.01566   1.00
H1       0.44589    0.15119    1.02914   1.00
C2       0.49995    0.14757    0.99701   1.00
C2       0.50299    0.50005    0.85243   1.00
C3a      0.53288    0.51810    0.83116   1.00
H1       0.55689    0.53207    0.84631   1.00
C3a      0.47191    0.48198    0.83296   1.00
H1       0.44882    0.46804    0.84949   1.00
C3b      0.53203    0.51828    0.79062   1.00
C5       0.56464    0.53795    0.76856   1.00
H2       0.55277    0.56179    0.75016   1.00
H2       0.58682    0.55075    0.78839   1.00
H2       0.57955    0.51655    0.74940   1.00
C3b      0.47039    0.48176    0.79244   1.00
C5       0.43655    0.46207    0.77233   1.00
H2       0.44733    0.43821    0.75330   1.00
H2       0.41556    0.44929    0.79345   1.00
H2       0.42055    0.48345    0.75406   1.00
C4       0.50062    0.50001    0.77127   1.00
C4       0.49938    0.49999    0.72873   1.00
C3b      0.48054    0.53081    0.70899   1.00
C5       0.46148    0.56406    0.73063   1.00
H2       0.48340    0.57954    0.74871   1.00
H2       0.44809    0.58564    0.71051   1.00
H2       0.43819    0.55275    0.75005   1.00
C3b      0.51704    0.46914    0.70796   1.00
C5       0.53733    0.43592    0.72848   1.00
H2       0.51649    0.42046    0.74783   1.00
H2       0.54952    0.41431    0.70765   1.00
H2       0.56171    0.44725    0.74650   1.00
C3a      0.47955    0.53045    0.66845   1.00
H1       0.46514    0.55401    0.65300   1.00
C3a      0.51566    0.46946    0.66743   1.00
H1       0.52914    0.44589    0.65119   1.00
C2       0.49701    0.49995    0.64757   1.00
C2       0.50299    0.99995    0.64757   1.00
C3a      0.53288    0.98190    0.66884   1.00
H1       0.55689    0.96793    0.65369   1.00
C3a      0.47191    1.01802    0.66704   1.00
H1       0.44882    1.03196    0.65051   1.00
C3b      0.53203    0.98172    0.70938   1.00
C5       0.56464    0.96205    0.73144   1.00
H2       0.55277    0.93821    0.74984   1.00
H2       0.58682    0.94925    0.71161   1.00
H2       0.57955    0.98345    0.75060   1.00
C3b      0.47039    1.01824    0.70756   1.00
C5       0.43655    1.03793    0.72767   1.00
H2       0.44733    1.06179    0.74670   1.00
H2       0.41556    1.05071    0.70655   1.00
H2       0.42055    1.01655    0.74594   1.00
C4       0.50062    0.99999    0.72873   1.00
C4       0.49938    1.00001    0.77127   1.00
C3b      0.48054    0.96919    0.79101   1.00
C5       0.46148    0.93594    0.76937   1.00
H2       0.48340    0.92046    0.75129   1.00
H2       0.44809    0.91436    0.78949   1.00
H2       0.43819    0.94725    0.74995   1.00
C3b      0.51704    1.03086    0.79204   1.00
C5       0.53733    1.06408    0.77152   1.00
H2       0.51649    1.07954    0.75217   1.00
H2       0.54952    1.08569    0.79235   1.00
H2       0.56171    1.05275    0.75350   1.00
C3a      0.47955    0.96955    0.83155   1.00
H1       0.46514    0.94599    0.84700   1.00
C3a      0.51566    1.03054    0.83257   1.00
H1       0.52914    1.05411    0.84881   1.00
C2       0.49701    1.00005    0.85243   1.00
C2       0.49995    1.14757    0.50299   1.00
C3a      0.48190    1.16884    0.53288   1.00
H1       0.46793    1.15369    0.55689   1.00
C3a      0.51802    1.16704    0.47191   1.00
H1       0.53196    1.15051    0.44882   1.00
C3b      0.48172    1.20938    0.53203   1.00
C5       0.46205    1.23144    0.56464   1.00
H2       0.43821    1.24984    0.55277   1.00
H2       0.44925    1.21161    0.58682   1.00
H2       0.48345    1.25060    0.57955   1.00
C3b      0.51824    1.20756    0.47039   1.00
C5       0.53793    1.22767    0.43655   1.00
H2       0.56179    1.24670    0.44733   1.00
H2       0.55071    1.20655    0.41556   1.00
H2       0.51655    1.24594    0.42055   1.00
C4       0.49999    1.22873    0.50062   1.00
C4       0.50001    1.27127    0.49938   1.00
C3b      0.46919    1.29101    0.48054   1.00
C5       0.43594    1.26937    0.46148   1.00
H2       0.42046    1.25129    0.48340   1.00
H2       0.41436    1.28949    0.44809   1.00
H2       0.44725    1.24995    0.43819   1.00
C3b      0.53086    1.29204    0.51704   1.00
C5       0.56408    1.27152    0.53733   1.00
H2       0.57954    1.25217    0.51649   1.00
H2       0.58569    1.29235    0.54952   1.00
H2       0.55275    1.25350    0.56171   1.00
C3a      0.46955    1.33155    0.47955   1.00
H1       0.44599    1.34700    0.46514   1.00
C3a      0.53054    1.33257    0.51566   1.00
H1       0.55411    1.34881    0.52914   1.00
C2       0.50005    1.35243    0.49701   1.00
C2       0.35243    1.00299    0.50005   1.00
C3a      0.33116    1.03288    0.51810   1.00
H1       0.34631    1.05689    0.53207   1.00
C3a      0.33296    0.97191    0.48198   1.00
H1       0.34949    0.94882    0.46804   1.00
C3b      0.29062    1.03203    0.51828   1.00
C5       0.26856    1.06464    0.53795   1.00
H2       0.25016    1.05277    0.56179   1.00
H2       0.28839    1.08682    0.55075   1.00
H2       0.24940    1.07955    0.51655   1.00
C3b      0.29244    0.97039    0.48176   1.00
C5       0.27233    0.93655    0.46207   1.00
H2       0.25330    0.94733    0.43821   1.00
H2       0.29345    0.91556    0.44929   1.00
H2       0.25406    0.92055    0.48345   1.00
C4       0.27127    1.00062    0.50001   1.00
C4       0.22873    0.99938    0.49999   1.00
C3b      0.20899    0.98054    0.53081   1.00
C5       0.23063    0.96148    0.56406   1.00
H2       0.24871    0.98340    0.57954   1.00
H2       0.21051    0.94809    0.58564   1.00
H2       0.25005    0.93819    0.55275   1.00
C3b      0.20796    1.01704    0.46914   1.00
C5       0.22848    1.03733    0.43592   1.00
H2       0.24783    1.01649    0.42046   1.00
H2       0.20765    1.04952    0.41431   1.00
H2       0.24650    1.06171    0.44725   1.00
C3a      0.16845    0.97955    0.53045   1.00
H1       0.15300    0.96514    0.55401   1.00
C3a      0.16743    1.01566    0.46946   1.00
H1       0.15119    1.02914    0.44589   1.00
C2       0.14757    0.99701    0.49995   1.00
C2       0.64757    1.00299    0.49995   1.00
C3a      0.66884    1.03288    0.48190   1.00
H1       0.65369    1.05689    0.46793   1.00
C3a      0.66704    0.97191    0.51802   1.00
H1       0.65051    0.94882    0.53196   1.00
C3b      0.70938    1.03203    0.48172   1.00
C5       0.73144    1.06464    0.46205   1.00
H2       0.74984    1.05277    0.43821   1.00
H2       0.71161    1.08682    0.44925   1.00
H2       0.75060    1.07955    0.48345   1.00
C3b      0.70756    0.97039    0.51824   1.00
C5       0.72767    0.93655    0.53793   1.00
H2       0.74670    0.94733    0.56179   1.00
H2       0.70655    0.91556    0.55071   1.00
H2       0.74594    0.92055    0.51655   1.00
C4       0.72873    1.00062    0.49999   1.00
C4       0.77127    0.99938    0.50001   1.00
C3b      0.79101    0.98054    0.46919   1.00
C5       0.76937    0.96148    0.43594   1.00
H2       0.75129    0.98340    0.42046   1.00
H2       0.78949    0.94809    0.41436   1.00
H2       0.74995    0.93819    0.44725   1.00
C3b      0.79204    1.01704    0.53086   1.00
C5       0.77152    1.03733    0.56408   1.00
H2       0.75217    1.01649    0.57954   1.00
H2       0.79235    1.04952    0.58569   1.00
H2       0.75350    1.06171    0.55275   1.00
C3a      0.83155    0.97955    0.46955   1.00
H1       0.84700    0.96514    0.44599   1.00
C3a      0.83257    1.01566    0.53054   1.00
H1       0.84881    1.02914    0.55411   1.00
C2       0.85243    0.99701    0.50005   1.00
C2       0.50005    0.85243    0.50299   1.00
C3a      0.51810    0.83116    0.53288   1.00
H1       0.53207    0.84631    0.55689   1.00
C3a      0.48198    0.83296    0.47191   1.00
H1       0.46804    0.84949    0.44882   1.00
C3b      0.51828    0.79062    0.53203   1.00
C5       0.53795    0.76856    0.56464   1.00
H2       0.56179    0.75016    0.55277   1.00
H2       0.55075    0.78839    0.58682   1.00
H2       0.51655    0.74940    0.57955   1.00
C3b      0.48176    0.79244    0.47039   1.00
C5       0.46207    0.77233    0.43655   1.00
H2       0.43821    0.75330    0.44733   1.00
H2       0.44929    0.79345    0.41556   1.00
H2       0.48345    0.75406    0.42055   1.00
C4       0.50001    0.77127    0.50062   1.00
C4       0.49999    0.72873    0.49938   1.00
C3b      0.53081    0.70899    0.48054   1.00
C5       0.56406    0.73063    0.46148   1.00
H2       0.57954    0.74871    0.48340   1.00
H2       0.58564    0.71051    0.44809   1.00
H2       0.55275    0.75005    0.43819   1.00
C3b      0.46914    0.70796    0.51704   1.00
C5       0.43592    0.72848    0.53733   1.00
H2       0.42046    0.74783    0.51649   1.00
H2       0.41431    0.70765    0.54952   1.00
H2       0.44725    0.74650    0.56171   1.00
C3a      0.53045    0.66845    0.47955   1.00
H1       0.55401    0.65300    0.46514   1.00
C3a      0.46946    0.66743    0.51566   1.00
H1       0.44589    0.65119    0.52914   1.00
C2       0.49995    0.64757    0.49701   1.00
C2       0.50299    1.00005    0.35243   1.00
C3a      0.53288    1.01810    0.33116   1.00
H1       0.55689    1.03207    0.34631   1.00
C3a      0.47191    0.98198    0.33296   1.00
H1       0.44882    0.96804    0.34949   1.00
C3b      0.53203    1.01828    0.29062   1.00
C5       0.56464    1.03795    0.26856   1.00
H2       0.55277    1.06179    0.25016   1.00
H2       0.58682    1.05075    0.28839   1.00
H2       0.57955    1.01655    0.24940   1.00
C3b      0.47039    0.98176    0.29244   1.00
C5       0.43655    0.96207    0.27233   1.00
H2       0.44733    0.93821    0.25330   1.00
H2       0.41556    0.94929    0.29345   1.00
H2       0.42055    0.98345    0.25406   1.00
C4       0.50062    1.00001    0.27127   1.00
C4       0.49938    0.99999    0.22873   1.00
C3b      0.48054    1.03081    0.20899   1.00
C5       0.46148    1.06406    0.23063   1.00
H2       0.48340    1.07954    0.24871   1.00
H2       0.44809    1.08564    0.21051   1.00
H2       0.43819    1.05275    0.25005   1.00
C3b      0.51704    0.96914    0.20796   1.00
C5       0.53733    0.93592    0.22848   1.00
H2       0.51649    0.92046    0.24783   1.00
H2       0.54952    0.91431    0.20765   1.00
H2       0.56171    0.94725    0.24650   1.00
C3a      0.47955    1.03045    0.16845   1.00
H1       0.46514    1.05401    0.15300   1.00
C3a      0.51566    0.96946    0.16743   1.00
H1       0.52914    0.94589    0.15119   1.00
C2       0.49701    0.99995    0.14757   1.00
C2       1.00299    0.49995    0.64757   1.00
C3a      1.03288    0.48190    0.66884   1.00
H1       1.05689    0.46793    0.65369   1.00
C3a      0.97191    0.51802    0.66704   1.00
H1       0.94882    0.53196    0.65051   1.00
C3b      1.03203    0.48172    0.70938   1.00
C5       1.06464    0.46205    0.73144   1.00
H2       1.05277    0.43821    0.74984   1.00
H2       1.08682    0.44925    0.71161   1.00
H2       1.07955    0.48345    0.75060   1.00
C3b      0.97039    0.51824    0.70756   1.00
C5       0.93655    0.53793    0.72767   1.00
H2       0.94733    0.56179    0.74670   1.00
H2       0.91556    0.55071    0.70655   1.00
H2       0.92055    0.51655    0.74594   1.00
C4       1.00062    0.49999    0.72873   1.00
C4       0.99938    0.50001    0.77127   1.00
C3b      0.98054    0.46919    0.79101   1.00
C5       0.96148    0.43594    0.76937   1.00
H2       0.98340    0.42046    0.75129   1.00
H2       0.94809    0.41436    0.78949   1.00
H2       0.93819    0.44725    0.74995   1.00
C3b      1.01704    0.53086    0.79204   1.00
C5       1.03733    0.56408    0.77152   1.00
H2       1.01649    0.57954    0.75217   1.00
H2       1.04952    0.58569    0.79235   1.00
H2       1.06171    0.55275    0.75350   1.00
C3a      0.97955    0.46955    0.83155   1.00
H1       0.96514    0.44599    0.84700   1.00
C3a      1.01566    0.53054    0.83257   1.00
H1       1.02914    0.55411    0.84881   1.00
C2       0.99701    0.50005    0.85243   1.00
C2       0.99995    0.64757    0.50299   1.00
C3a      0.98190    0.66884    0.53288   1.00
H1       0.96793    0.65369    0.55689   1.00
C3a      1.01802    0.66704    0.47191   1.00
H1       1.03196    0.65051    0.44882   1.00
C3b      0.98172    0.70938    0.53203   1.00
C5       0.96205    0.73144    0.56464   1.00
H2       0.93821    0.74984    0.55277   1.00
H2       0.94925    0.71161    0.58682   1.00
H2       0.98345    0.75060    0.57955   1.00
C3b      1.01824    0.70756    0.47039   1.00
C5       1.03793    0.72767    0.43655   1.00
H2       1.06179    0.74670    0.44733   1.00
H2       1.05071    0.70655    0.41556   1.00
H2       1.01655    0.74594    0.42055   1.00
C4       0.99999    0.72873    0.50062   1.00
C4       1.00001    0.77127    0.49938   1.00
C3b      0.96919    0.79101    0.48054   1.00
C5       0.93594    0.76937    0.46148   1.00
H2       0.92046    0.75129    0.48340   1.00
H2       0.91436    0.78949    0.44809   1.00
H2       0.94725    0.74995    0.43819   1.00
C3b      1.03086    0.79204    0.51704   1.00
C5       1.06408    0.77152    0.53733   1.00
H2       1.07954    0.75217    0.51649   1.00
H2       1.08569    0.79235    0.54952   1.00
H2       1.05275    0.75350    0.56171   1.00
C3a      0.96955    0.83155    0.47955   1.00
H1       0.94599    0.84700    0.46514   1.00
C3a      1.03054    0.83257    0.51566   1.00
H1       1.05411    0.84881    0.52914   1.00
C2       1.00005    0.85243    0.49701   1.00
C2       0.85243    0.50299    0.50005   1.00
C3a      0.83116    0.53288    0.51810   1.00
H1       0.84631    0.55689    0.53207   1.00
C3a      0.83296    0.47191    0.48198   1.00
H1       0.84949    0.44882    0.46804   1.00
C3b      0.79062    0.53203    0.51828   1.00
C5       0.76856    0.56464    0.53795   1.00
H2       0.75016    0.55277    0.56179   1.00
H2       0.78839    0.58682    0.55075   1.00
H2       0.74940    0.57955    0.51655   1.00
C3b      0.79244    0.47039    0.48176   1.00
C5       0.77233    0.43655    0.46207   1.00
H2       0.75330    0.44733    0.43821   1.00
H2       0.79345    0.41556    0.44929   1.00
H2       0.75406    0.42055    0.48345   1.00
C4       0.77127    0.50062    0.50001   1.00
C4       0.72873    0.49938    0.49999   1.00
C3b      0.70899    0.48054    0.53081   1.00
C5       0.73063    0.46148    0.56406   1.00
H2       0.74871    0.48340    0.57954   1.00
H2       0.71051    0.44809    0.58564   1.00
H2       0.75005    0.43819    0.55275   1.00
C3b      0.70796    0.51704    0.46914   1.00
C5       0.72848    0.53733    0.43592   1.00
H2       0.74783    0.51649    0.42046   1.00
H2       0.70765    0.54952    0.41431   1.00
H2       0.74650    0.56171    0.44725   1.00
C3a      0.66845    0.47955    0.53045   1.00
H1       0.65300    0.46514    0.55401   1.00
C3a      0.66743    0.51566    0.46946   1.00
H1       0.65119    0.52914    0.44589   1.00
C2       0.64757    0.49701    0.49995   1.00
C2       1.14757    0.50299    0.49995   1.00
C3a      1.16884    0.53288    0.48190   1.00
H1       1.15369    0.55689    0.46793   1.00
C3a      1.16704    0.47191    0.51802   1.00
H1       1.15051    0.44882    0.53196   1.00
C3b      1.20938    0.53203    0.48172   1.00
C5       1.23144    0.56464    0.46205   1.00
H2       1.24984    0.55277    0.43821   1.00
H2       1.21161    0.58682    0.44925   1.00
H2       1.25060    0.57955    0.48345   1.00
C3b      1.20756    0.47039    0.51824   1.00
C5       1.22767    0.43655    0.53793   1.00
H2       1.24670    0.44733    0.56179   1.00
H2       1.20655    0.41556    0.55071   1.00
H2       1.24594    0.42055    0.51655   1.00
C4       1.22873    0.50062    0.49999   1.00
C4       1.27127    0.49938    0.50001   1.00
C3b      1.29101    0.48054    0.46919   1.00
C5       1.26937    0.46148    0.43594   1.00
H2       1.25129    0.48340    0.42046   1.00
H2       1.28949    0.44809    0.41436   1.00
H2       1.24995    0.43819    0.44725   1.00
C3b      1.29204    0.51704    0.53086   1.00
C5       1.27152    0.53733    0.56408   1.00
H2       1.25217    0.51649    0.57954   1.00
H2       1.29235    0.54952    0.58569   1.00
H2       1.25350    0.56171    0.55275   1.00
C3a      1.33155    0.47955    0.46955   1.00
H1       1.34700    0.46514    0.44599   1.00
C3a      1.33257    0.51566    0.53054   1.00
H1       1.34881    0.52914    0.55411   1.00
C2       1.35243    0.49701    0.50005   1.00
C2       1.00005    0.35243    0.50299   1.00
C3a      1.01810    0.33116    0.53288   1.00
H1       1.03207    0.34631    0.55689   1.00
C3a      0.98198    0.33296    0.47191   1.00
H1       0.96804    0.34949    0.44882   1.00
C3b      1.01828    0.29062    0.53203   1.00
C5       1.03795    0.26856    0.56464   1.00
H2       1.06179    0.25016    0.55277   1.00
H2       1.05075    0.28839    0.58682   1.00
H2       1.01655    0.24940    0.57955   1.00
C3b      0.98176    0.29244    0.47039   1.00
C5       0.96207    0.27233    0.43655   1.00
H2       0.93821    0.25330    0.44733   1.00
H2       0.94929    0.29345    0.41556   1.00
H2       0.98345    0.25406    0.42055   1.00
C4       1.00001    0.27127    0.50062   1.00
C4       0.99999    0.22873    0.49938   1.00
C3b      1.03081    0.20899    0.48054   1.00
C5       1.06406    0.23063    0.46148   1.00
H2       1.07954    0.24871    0.48340   1.00
H2       1.08564    0.21051    0.44809   1.00
H2       1.05275    0.25005    0.43819   1.00
C3b      0.96914    0.20796    0.51704   1.00
C5       0.93592    0.22848    0.53733   1.00
H2       0.92046    0.24783    0.51649   1.00
H2       0.91431    0.20765    0.54952   1.00
H2       0.94725    0.24650    0.56171   1.00
C3a      1.03045    0.16845    0.47955   1.00
H1       1.05401    0.15300    0.46514   1.00
C3a      0.96946    0.16743    0.51566   1.00
H1       0.94589    0.15119    0.52914   1.00
C2       0.99995    0.14757    0.49701   1.00
C2       1.00299    0.50005    0.35243   1.00
C3a      1.03288    0.51810    0.33116   1.00
H1       1.05689    0.53207    0.34631   1.00
C3a      0.97191    0.48198    0.33296   1.00
H1       0.94882    0.46804    0.34949   1.00
C3b      1.03203    0.51828    0.29062   1.00
C5       1.06464    0.53795    0.26856   1.00
H2       1.05277    0.56179    0.25016   1.00
H2       1.08682    0.55075    0.28839   1.00
H2       1.07955    0.51655    0.24940   1.00
C3b      0.97039    0.48176    0.29244   1.00
C5       0.93655    0.46207    0.27233   1.00
H2       0.94733    0.43821    0.25330   1.00
H2       0.91556    0.44929    0.29345   1.00
H2       0.92055    0.48345    0.25406   1.00
C4       1.00062    0.50001    0.27127   1.00
C4       0.99938    0.49999    0.22873   1.00
C3b      0.98054    0.53081    0.20899   1.00
C5       0.96148    0.56406    0.23063   1.00
H2       0.98340    0.57954    0.24871   1.00
H2       0.94809    0.58564    0.21051   1.00
H2       0.93819    0.55275    0.25005   1.00
C3b      1.01704    0.46914    0.20796   1.00
C5       1.03733    0.43592    0.22848   1.00
H2       1.01649    0.42046    0.24783   1.00
H2       1.04952    0.41431    0.20765   1.00
H2       1.06171    0.44725    0.24650   1.00
C3a      0.97955    0.53045    0.16845   1.00
H1       0.96514    0.55401    0.15300   1.00
C3a      1.01566    0.46946    0.16743   1.00
H1       1.02914    0.44589    0.15119   1.00
C2       0.99701    0.49995    0.14757   1.00
