data_IRMOF10_SG202_interpen_Ligand7lp_label_m.

_audit_creation_method             'generated by an auxiliary program of Tobunporous'

_symmetry_space_group_name_H-M     'P 1'
_symmetry_Int_Tables_number        1
_symmetry_cell_setting             triclinic

_cell_length_a                    34.2800
_cell_length_b                    34.2800
_cell_length_c                    34.2800
_cell_angle_alpha                 90.0000
_cell_angle_beta                  90.0000
_cell_angle_gamma                 90.0000

loop_
_atom_site_label
_atom_site_fract_x
_atom_site_fract_y
_atom_site_fract_z
_atom_site_occupancy
O1       0.75000    0.75000    0.75000   1.00
Zn1      0.71720    0.78280    0.78280   1.00
Zn1      0.78280    0.71720    0.78280   1.00
Zn1      0.78280    0.78280    0.71720   1.00
Zn1      0.71720    0.71720    0.71720   1.00
O2       0.72650    0.77350    0.83820   1.00
O2       0.72650    0.83820    0.77350   1.00
O2       0.66180    0.77350    0.77350   1.00
O2       0.77350    0.72650    0.83820   1.00
O2       0.83820    0.72650    0.77350   1.00
O2       0.77350    0.66180    0.77350   1.00
O2       0.77350    0.83820    0.72650   1.00
O2       0.83820    0.77350    0.72650   1.00
O2       0.77350    0.77350    0.66180   1.00
O2       0.66180    0.72650    0.72650   1.00
O2       0.72650    0.66180    0.72650   1.00
O2       0.72650    0.72650    0.66180   1.00
C1       0.75000    0.75000    0.85520   1.00
C1       0.75000    0.85520    0.75000   1.00
C1       0.64480    0.75000    0.75000   1.00
C1       0.85520    0.75000    0.75000   1.00
C1       0.75000    0.64480    0.75000   1.00
C1       0.75000    0.75000    0.64480   1.00
O1       0.25000    0.25000    0.75000   1.00
Zn1      0.21720    0.28280    0.78280   1.00
Zn1      0.28280    0.21720    0.78280   1.00
Zn1      0.28280    0.28280    0.71720   1.00
Zn1      0.21720    0.21720    0.71720   1.00
O2       0.22650    0.27350    0.83820   1.00
O2       0.22650    0.33820    0.77350   1.00
O2       0.16180    0.27350    0.77350   1.00
O2       0.27350    0.22650    0.83820   1.00
O2       0.33820    0.22650    0.77350   1.00
O2       0.27350    0.16180    0.77350   1.00
O2       0.27350    0.33820    0.72650   1.00
O2       0.33820    0.27350    0.72650   1.00
O2       0.27350    0.27350    0.66180   1.00
O2       0.16180    0.22650    0.72650   1.00
O2       0.22650    0.16180    0.72650   1.00
O2       0.22650    0.22650    0.66180   1.00
C1       0.25000    0.25000    0.85520   1.00
C1       0.25000    0.35520    0.75000   1.00
C1       0.14480    0.25000    0.75000   1.00
C1       0.35520    0.25000    0.75000   1.00
C1       0.25000    0.14480    0.75000   1.00
C1       0.25000    0.25000    0.64480   1.00
O1       0.25000    0.75000    0.25000   1.00
Zn1      0.21720    0.78280    0.28280   1.00
Zn1      0.28280    0.71720    0.28280   1.00
Zn1      0.28280    0.78280    0.21720   1.00
Zn1      0.21720    0.71720    0.21720   1.00
O2       0.22650    0.77350    0.33820   1.00
O2       0.22650    0.83820    0.27350   1.00
O2       0.16180    0.77350    0.27350   1.00
O2       0.27350    0.72650    0.33820   1.00
O2       0.33820    0.72650    0.27350   1.00
O2       0.27350    0.66180    0.27350   1.00
O2       0.27350    0.83820    0.22650   1.00
O2       0.33820    0.77350    0.22650   1.00
O2       0.27350    0.77350    0.16180   1.00
O2       0.16180    0.72650    0.22650   1.00
O2       0.22650    0.66180    0.22650   1.00
O2       0.22650    0.72650    0.16180   1.00
C1       0.25000    0.75000    0.35520   1.00
C1       0.25000    0.85520    0.25000   1.00
C1       0.14480    0.75000    0.25000   1.00
C1       0.35520    0.75000    0.25000   1.00
C1       0.25000    0.64480    0.25000   1.00
C1       0.25000    0.75000    0.14480   1.00
O1       0.75000    0.25000    0.25000   1.00
Zn1      0.71720    0.28280    0.28280   1.00
Zn1      0.78280    0.21720    0.28280   1.00
Zn1      0.78280    0.28280    0.21720   1.00
Zn1      0.71720    0.21720    0.21720   1.00
O2       0.72650    0.27350    0.33820   1.00
O2       0.72650    0.33820    0.27350   1.00
O2       0.66180    0.27350    0.27350   1.00
O2       0.77350    0.22650    0.33820   1.00
O2       0.83820    0.22650    0.27350   1.00
O2       0.77350    0.16180    0.27350   1.00
O2       0.77350    0.33820    0.22650   1.00
O2       0.83820    0.27350    0.22650   1.00
O2       0.77350    0.27350    0.16180   1.00
O2       0.66180    0.22650    0.22650   1.00
O2       0.72650    0.16180    0.22650   1.00
O2       0.72650    0.22650    0.16180   1.00
C1       0.75000    0.25000    0.35520   1.00
C1       0.75000    0.35520    0.25000   1.00
C1       0.64480    0.25000    0.25000   1.00
C1       0.85520    0.25000    0.25000   1.00
C1       0.75000    0.14480    0.25000   1.00
C1       0.75000    0.25000    0.14480   1.00
O1       0.25000    0.25000    0.25000   1.00
Zn1      0.28280    0.21720    0.21720   1.00
Zn1      0.21720    0.28280    0.21720   1.00
Zn1      0.21720    0.21720    0.28280   1.00
Zn1      0.28280    0.28280    0.28280   1.00
O2       0.27350    0.22650    0.16180   1.00
O2       0.27350    0.16180    0.22650   1.00
O2       0.33820    0.22650    0.22650   1.00
O2       0.22650    0.27350    0.16180   1.00
O2       0.16180    0.27350    0.22650   1.00
O2       0.22650    0.33820    0.22650   1.00
O2       0.22650    0.16180    0.27350   1.00
O2       0.16180    0.22650    0.27350   1.00
O2       0.22650    0.22650    0.33820   1.00
O2       0.33820    0.27350    0.27350   1.00
O2       0.27350    0.33820    0.27350   1.00
O2       0.27350    0.27350    0.33820   1.00
C1       0.25000    0.25000    0.14480   1.00
C1       0.25000    0.14480    0.25000   1.00
C1       0.35520    0.25000    0.25000   1.00
C1       0.14480    0.25000    0.25000   1.00
C1       0.25000    0.35520    0.25000   1.00
C1       0.25000    0.25000    0.35520   1.00
O1       0.75000    0.75000    0.25000   1.00
Zn1      0.78280    0.71720    0.21720   1.00
Zn1      0.71720    0.78280    0.21720   1.00
Zn1      0.71720    0.71720    0.28280   1.00
Zn1      0.78280    0.78280    0.28280   1.00
O2       0.77350    0.72650    0.16180   1.00
O2       0.77350    0.66180    0.22650   1.00
O2       0.83820    0.72650    0.22650   1.00
O2       0.72650    0.77350    0.16180   1.00
O2       0.66180    0.77350    0.22650   1.00
O2       0.72650    0.83820    0.22650   1.00
O2       0.72650    0.66180    0.27350   1.00
O2       0.66180    0.72650    0.27350   1.00
O2       0.72650    0.72650    0.33820   1.00
O2       0.83820    0.77350    0.27350   1.00
O2       0.77350    0.83820    0.27350   1.00
O2       0.77350    0.77350    0.33820   1.00
C1       0.75000    0.75000    0.14480   1.00
C1       0.75000    0.64480    0.25000   1.00
C1       0.85520    0.75000    0.25000   1.00
C1       0.64480    0.75000    0.25000   1.00
C1       0.75000    0.85520    0.25000   1.00
C1       0.75000    0.75000    0.35520   1.00
O1       0.75000    0.25000    0.75000   1.00
Zn1      0.78280    0.21720    0.71720   1.00
Zn1      0.71720    0.28280    0.71720   1.00
Zn1      0.71720    0.21720    0.78280   1.00
Zn1      0.78280    0.28280    0.78280   1.00
O2       0.77350    0.22650    0.66180   1.00
O2       0.77350    0.16180    0.72650   1.00
O2       0.83820    0.22650    0.72650   1.00
O2       0.72650    0.27350    0.66180   1.00
O2       0.66180    0.27350    0.72650   1.00
O2       0.72650    0.33820    0.72650   1.00
O2       0.72650    0.16180    0.77350   1.00
O2       0.66180    0.22650    0.77350   1.00
O2       0.72650    0.22650    0.83820   1.00
O2       0.83820    0.27350    0.77350   1.00
O2       0.77350    0.33820    0.77350   1.00
O2       0.77350    0.27350    0.83820   1.00
C1       0.75000    0.25000    0.64480   1.00
C1       0.75000    0.14480    0.75000   1.00
C1       0.85520    0.25000    0.75000   1.00
C1       0.64480    0.25000    0.75000   1.00
C1       0.75000    0.35520    0.75000   1.00
C1       0.75000    0.25000    0.85520   1.00
O1       0.25000    0.75000    0.75000   1.00
Zn1      0.28280    0.71720    0.71720   1.00
Zn1      0.21720    0.78280    0.71720   1.00
Zn1      0.21720    0.71720    0.78280   1.00
Zn1      0.28280    0.78280    0.78280   1.00
O2       0.27350    0.72650    0.66180   1.00
O2       0.27350    0.66180    0.72650   1.00
O2       0.33820    0.72650    0.72650   1.00
O2       0.22650    0.77350    0.66180   1.00
O2       0.16180    0.77350    0.72650   1.00
O2       0.22650    0.83820    0.72650   1.00
O2       0.22650    0.66180    0.77350   1.00
O2       0.16180    0.72650    0.77350   1.00
O2       0.22650    0.72650    0.83820   1.00
O2       0.33820    0.77350    0.77350   1.00
O2       0.27350    0.83820    0.77350   1.00
O2       0.27350    0.77350    0.83820   1.00
C1       0.25000    0.75000    0.64480   1.00
C1       0.25000    0.64480    0.75000   1.00
C1       0.35520    0.75000    0.75000   1.00
C1       0.14480    0.75000    0.75000   1.00
C1       0.25000    0.85520    0.75000   1.00
C1       0.25000    0.75000    0.85520   1.00
O1       1.00000    1.00000    1.00000   1.00
Zn1      0.96720    1.03280    1.03280   1.00
Zn1      1.03280    0.96720    1.03280   1.00
Zn1      1.03280    1.03280    0.96720   1.00
Zn1      0.96720    0.96720    0.96720   1.00
O2       0.97650    1.02350    1.08820   1.00
O2       0.97650    1.08820    1.02350   1.00
O2       0.91180    1.02350    1.02350   1.00
O2       1.02350    0.97650    1.08820   1.00
O2       1.08820    0.97650    1.02350   1.00
O2       1.02350    0.91180    1.02350   1.00
O2       1.02350    1.08820    0.97650   1.00
O2       1.08820    1.02350    0.97650   1.00
O2       1.02350    1.02350    0.91180   1.00
O2       0.91180    0.97650    0.97650   1.00
O2       0.97650    0.91180    0.97650   1.00
O2       0.97650    0.97650    0.91180   1.00
C1       1.00000    1.00000    1.10520   1.00
C1       1.00000    1.10520    1.00000   1.00
C1       0.89480    1.00000    1.00000   1.00
C1       1.10520    1.00000    1.00000   1.00
C1       1.00000    0.89480    1.00000   1.00
C1       1.00000    1.00000    0.89480   1.00
O1       0.50000    0.50000    1.00000   1.00
Zn1      0.46720    0.53280    1.03280   1.00
Zn1      0.53280    0.46720    1.03280   1.00
Zn1      0.53280    0.53280    0.96720   1.00
Zn1      0.46720    0.46720    0.96720   1.00
O2       0.47650    0.52350    1.08820   1.00
O2       0.47650    0.58820    1.02350   1.00
O2       0.41180    0.52350    1.02350   1.00
O2       0.52350    0.47650    1.08820   1.00
O2       0.58820    0.47650    1.02350   1.00
O2       0.52350    0.41180    1.02350   1.00
O2       0.52350    0.58820    0.97650   1.00
O2       0.58820    0.52350    0.97650   1.00
O2       0.52350    0.52350    0.91180   1.00
O2       0.41180    0.47650    0.97650   1.00
O2       0.47650    0.41180    0.97650   1.00
O2       0.47650    0.47650    0.91180   1.00
C1       0.50000    0.50000    1.10520   1.00
C1       0.50000    0.60520    1.00000   1.00
C1       0.39480    0.50000    1.00000   1.00
C1       0.60520    0.50000    1.00000   1.00
C1       0.50000    0.39480    1.00000   1.00
C1       0.50000    0.50000    0.89480   1.00
O1       0.50000    1.00000    0.50000   1.00
Zn1      0.46720    1.03280    0.53280   1.00
Zn1      0.53280    0.96720    0.53280   1.00
Zn1      0.53280    1.03280    0.46720   1.00
Zn1      0.46720    0.96720    0.46720   1.00
O2       0.47650    1.02350    0.58820   1.00
O2       0.47650    1.08820    0.52350   1.00
O2       0.41180    1.02350    0.52350   1.00
O2       0.52350    0.97650    0.58820   1.00
O2       0.58820    0.97650    0.52350   1.00
O2       0.52350    0.91180    0.52350   1.00
O2       0.52350    1.08820    0.47650   1.00
O2       0.58820    1.02350    0.47650   1.00
O2       0.52350    1.02350    0.41180   1.00
O2       0.41180    0.97650    0.47650   1.00
O2       0.47650    0.91180    0.47650   1.00
O2       0.47650    0.97650    0.41180   1.00
C1       0.50000    1.00000    0.60520   1.00
C1       0.50000    1.10520    0.50000   1.00
C1       0.39480    1.00000    0.50000   1.00
C1       0.60520    1.00000    0.50000   1.00
C1       0.50000    0.89480    0.50000   1.00
C1       0.50000    1.00000    0.39480   1.00
O1       1.00000    0.50000    0.50000   1.00
Zn1      0.96720    0.53280    0.53280   1.00
Zn1      1.03280    0.46720    0.53280   1.00
Zn1      1.03280    0.53280    0.46720   1.00
Zn1      0.96720    0.46720    0.46720   1.00
O2       0.97650    0.52350    0.58820   1.00
O2       0.97650    0.58820    0.52350   1.00
O2       0.91180    0.52350    0.52350   1.00
O2       1.02350    0.47650    0.58820   1.00
O2       1.08820    0.47650    0.52350   1.00
O2       1.02350    0.41180    0.52350   1.00
O2       1.02350    0.58820    0.47650   1.00
O2       1.08820    0.52350    0.47650   1.00
O2       1.02350    0.52350    0.41180   1.00
O2       0.91180    0.47650    0.47650   1.00
O2       0.97650    0.41180    0.47650   1.00
O2       0.97650    0.47650    0.41180   1.00
C1       1.00000    0.50000    0.60520   1.00
C1       1.00000    0.60520    0.50000   1.00
C1       0.89480    0.50000    0.50000   1.00
C1       1.10520    0.50000    0.50000   1.00
C1       1.00000    0.39480    0.50000   1.00
C1       1.00000    0.50000    0.39480   1.00
O1       0.50000    0.50000    0.50000   1.00
Zn1      0.53280    0.46720    0.46720   1.00
Zn1      0.46720    0.53280    0.46720   1.00
Zn1      0.46720    0.46720    0.53280   1.00
Zn1      0.53280    0.53280    0.53280   1.00
O2       0.52350    0.47650    0.41180   1.00
O2       0.52350    0.41180    0.47650   1.00
O2       0.58820    0.47650    0.47650   1.00
O2       0.47650    0.52350    0.41180   1.00
O2       0.41180    0.52350    0.47650   1.00
O2       0.47650    0.58820    0.47650   1.00
O2       0.47650    0.41180    0.52350   1.00
O2       0.41180    0.47650    0.52350   1.00
O2       0.47650    0.47650    0.58820   1.00
O2       0.58820    0.52350    0.52350   1.00
O2       0.52350    0.58820    0.52350   1.00
O2       0.52350    0.52350    0.58820   1.00
C1       0.50000    0.50000    0.39480   1.00
C1       0.50000    0.39480    0.50000   1.00
C1       0.60520    0.50000    0.50000   1.00
C1       0.39480    0.50000    0.50000   1.00
C1       0.50000    0.60520    0.50000   1.00
C1       0.50000    0.50000    0.60520   1.00
O1       1.00000    1.00000    0.50000   1.00
Zn1      1.03280    0.96720    0.46720   1.00
Zn1      0.96720    1.03280    0.46720   1.00
Zn1      0.96720    0.96720    0.53280   1.00
Zn1      1.03280    1.03280    0.53280   1.00
O2       1.02350    0.97650    0.41180   1.00
O2       1.02350    0.91180    0.47650   1.00
O2       1.08820    0.97650    0.47650   1.00
O2       0.97650    1.02350    0.41180   1.00
O2       0.91180    1.02350    0.47650   1.00
O2       0.97650    1.08820    0.47650   1.00
O2       0.97650    0.91180    0.52350   1.00
O2       0.91180    0.97650    0.52350   1.00
O2       0.97650    0.97650    0.58820   1.00
O2       1.08820    1.02350    0.52350   1.00
O2       1.02350    1.08820    0.52350   1.00
O2       1.02350    1.02350    0.58820   1.00
C1       1.00000    1.00000    0.39480   1.00
C1       1.00000    0.89480    0.50000   1.00
C1       1.10520    1.00000    0.50000   1.00
C1       0.89480    1.00000    0.50000   1.00
C1       1.00000    1.10520    0.50000   1.00
C1       1.00000    1.00000    0.60520   1.00
O1       1.00000    0.50000    1.00000   1.00
Zn1      1.03280    0.46720    0.96720   1.00
Zn1      0.96720    0.53280    0.96720   1.00
Zn1      0.96720    0.46720    1.03280   1.00
Zn1      1.03280    0.53280    1.03280   1.00
O2       1.02350    0.47650    0.91180   1.00
O2       1.02350    0.41180    0.97650   1.00
O2       1.08820    0.47650    0.97650   1.00
O2       0.97650    0.52350    0.91180   1.00
O2       0.91180    0.52350    0.97650   1.00
O2       0.97650    0.58820    0.97650   1.00
O2       0.97650    0.41180    1.02350   1.00
O2       0.91180    0.47650    1.02350   1.00
O2       0.97650    0.47650    1.08820   1.00
O2       1.08820    0.52350    1.02350   1.00
O2       1.02350    0.58820    1.02350   1.00
O2       1.02350    0.52350    1.08820   1.00
C1       1.00000    0.50000    0.89480   1.00
C1       1.00000    0.39480    1.00000   1.00
C1       1.10520    0.50000    1.00000   1.00
C1       0.89480    0.50000    1.00000   1.00
C1       1.00000    0.60520    1.00000   1.00
C1       1.00000    0.50000    1.10520   1.00
O1       0.50000    1.00000    1.00000   1.00
Zn1      0.53280    0.96720    0.96720   1.00
Zn1      0.46720    1.03280    0.96720   1.00
Zn1      0.46720    0.96720    1.03280   1.00
Zn1      0.53280    1.03280    1.03280   1.00
O2       0.52350    0.97650    0.91180   1.00
O2       0.52350    0.91180    0.97650   1.00
O2       0.58820    0.97650    0.97650   1.00
O2       0.47650    1.02350    0.91180   1.00
O2       0.41180    1.02350    0.97650   1.00
O2       0.47650    1.08820    0.97650   1.00
O2       0.47650    0.91180    1.02350   1.00
O2       0.41180    0.97650    1.02350   1.00
O2       0.47650    0.97650    1.08820   1.00
O2       0.58820    1.02350    1.02350   1.00
O2       0.52350    1.08820    1.02350   1.00
O2       0.52350    1.02350    1.08820   1.00
C1       0.50000    1.00000    0.89480   1.00
C1       0.50000    0.89480    1.00000   1.00
C1       0.60520    1.00000    1.00000   1.00
C1       0.39480    1.00000    1.00000   1.00
C1       0.50000    1.10520    1.00000   1.00
C1       0.50000    1.00000    1.10520   1.00
C5       0.82715    0.64939    1.13218   1.00
H2       0.84240    0.67355    1.14745   1.00
H2       0.84850    0.63748    1.11090   1.00
C5       0.81544    0.61784    1.16194   1.00
C5       0.85022    0.59097    1.17123   1.00
H2       0.79105    0.59992    1.15015   1.00
O3       0.70199    0.69794    0.98000   1.00
C4       0.75008    0.75041    1.02100   1.00
C3c      0.77621    0.72724    1.04243   1.00
H1       0.79697    0.70898    1.02725   1.00
C3d      0.72364    0.77442    1.04135   1.00
C3       0.77567    0.72677    1.08354   1.00
O2       0.80513    0.70713    1.10248   1.00
C3       0.72252    0.77346    1.08227   1.00
H1       0.70081    0.79133    1.09657   1.00
C2       0.74845    0.74988    1.10439   1.00
C5       0.66264    0.71009    0.97879   1.00
H2       0.65121    0.71176    0.94838   1.00
H2       0.65896    0.73932    0.99266   1.00
C5       0.63860    0.68018    1.00129   1.00
H2       0.65071    0.67770    1.03137   1.00
H2       0.64219    0.65119    0.98698   1.00
C5       0.59527    0.69198    1.00262   1.00
H2       0.58306    0.69477    0.97268   1.00
H2       0.59151    0.72027    1.01811   1.00
C5       0.57149    0.66073    1.02445   1.00
C5       0.71064    0.83224    1.01105   1.00
C5       0.79319    0.66850    1.11070   1.00
H2       0.73587    0.82912    0.99088   1.00
H2       0.72016    0.84926    1.03712   1.00
H2       0.78695    0.65256    1.08300   1.00
H2       0.76614    0.66739    1.12895   1.00
H2       0.80629    0.63114    1.19030   1.00
H2       0.71235    0.88129    0.94247   1.00
H2       0.71201    0.90912    0.98763   1.00
C2       0.74733    0.74977    0.89605   1.00
C3       0.77320    0.77489    0.91597   1.00
O2       0.79041    0.80579    0.89674   1.00
C3       0.72412    0.72383    0.91826   1.00
H1       0.70477    0.70353    0.90385   1.00
C3a      0.77456    0.77430    0.95713   1.00
H1       0.79287    0.79525    0.97202   1.00
C3b      0.72464    0.72418    0.95922   1.00
C4       0.74992    0.74959    0.97900   1.00
O3       0.69537    0.79551    1.02167   1.00
C5       0.82941    0.79669    0.88720   1.00
H2       0.84690    0.79014    0.91391   1.00
C5       0.84648    0.83231    0.86674   1.00
H2       0.83084    0.77103    0.86726   1.00
H2       0.85470    0.85419    0.88932   1.00
H2       0.82271    0.84571    0.84907   1.00
C5       0.88180    0.82238    0.84082   1.00
H2       0.90391    0.80629    0.85824   1.00
C5       0.90063    0.85977    0.82453   1.00
H2       0.87298    0.80438    0.81507   1.00
C5       0.67836    0.85463    0.99017   1.00
H2       0.65615    0.86359    1.01215   1.00
H2       0.66359    0.83432    0.96952   1.00
C5       0.69424    0.89033    0.96800   1.00
C5       0.66016    0.91499    0.95225   1.00
H2       0.87045    0.60609    1.19286   1.00
C5       0.83514    0.55262    1.18912   1.00
H2       0.86689    0.58433    1.14323   1.00
C5       0.53044    0.67667    1.03337   1.00
H2       0.56893    0.63351    1.00551   1.00
H2       0.58682    0.65302    1.05293   1.00
C5       0.93976    0.84953    0.80497   1.00
H2       0.88031    0.87356    0.80211   1.00
H2       0.90594    0.88124    0.84937   1.00
H2       0.63882    0.89531    0.93602   1.00
H2       0.64452    0.92976    0.97761   1.00
C5       0.67602    0.94626    0.92417   1.00
H2       0.80450    0.55729    1.20116   1.00
H2       0.83437    0.52901    1.16571   1.00
H2       0.85540    0.54315    1.21374   1.00
H2       0.52640    0.70599    1.01820   1.00
H2       0.50757    0.65522    1.02229   1.00
H2       0.52698    0.68061    1.06621   1.00
H2       0.93687    0.82057    0.78889   1.00
H2       0.94794    0.87345    0.78336   1.00
H2       0.96343    0.84701    0.82819   1.00
H2       0.67558    0.93448    0.89307   1.00
H2       0.65699    0.97347    0.92598   1.00
H2       0.70723    0.95398    0.93266   1.00
C5       0.64939    1.13218    0.82715   1.00
H2       0.67355    1.14745    0.84240   1.00
H2       0.63748    1.11090    0.84850   1.00
C5       0.61784    1.16194    0.81544   1.00
C5       0.59097    1.17123    0.85022   1.00
H2       0.59992    1.15015    0.79105   1.00
O3       0.69794    0.98000    0.70199   1.00
C4       0.75041    1.02100    0.75008   1.00
C3c      0.72724    1.04243    0.77621   1.00
H1       0.70898    1.02725    0.79697   1.00
C3d      0.77442    1.04135    0.72364   1.00
C3       0.72677    1.08354    0.77567   1.00
O2       0.70713    1.10248    0.80513   1.00
C3       0.77346    1.08227    0.72252   1.00
H1       0.79133    1.09657    0.70081   1.00
C2       0.74988    1.10439    0.74845   1.00
C5       0.71009    0.97879    0.66264   1.00
H2       0.71176    0.94838    0.65121   1.00
H2       0.73932    0.99266    0.65896   1.00
C5       0.68018    1.00129    0.63860   1.00
H2       0.67770    1.03137    0.65071   1.00
H2       0.65119    0.98698    0.64219   1.00
C5       0.69198    1.00262    0.59527   1.00
H2       0.69477    0.97268    0.58306   1.00
H2       0.72027    1.01811    0.59151   1.00
C5       0.66073    1.02445    0.57149   1.00
C5       0.83224    1.01105    0.71064   1.00
C5       0.66850    1.11070    0.79319   1.00
H2       0.82912    0.99088    0.73587   1.00
H2       0.84926    1.03712    0.72016   1.00
H2       0.65256    1.08300    0.78695   1.00
H2       0.66739    1.12895    0.76614   1.00
H2       0.63114    1.19030    0.80629   1.00
H2       0.88129    0.94247    0.71235   1.00
H2       0.90912    0.98763    0.71201   1.00
C2       0.74977    0.89605    0.74733   1.00
C3       0.77489    0.91597    0.77320   1.00
O2       0.80579    0.89674    0.79041   1.00
C3       0.72383    0.91826    0.72412   1.00
H1       0.70353    0.90385    0.70477   1.00
C3a      0.77430    0.95713    0.77456   1.00
H1       0.79525    0.97202    0.79287   1.00
C3b      0.72418    0.95922    0.72464   1.00
C4       0.74959    0.97900    0.74992   1.00
O3       0.79551    1.02167    0.69537   1.00
C5       0.79669    0.88720    0.82941   1.00
H2       0.79014    0.91391    0.84690   1.00
C5       0.83231    0.86674    0.84648   1.00
H2       0.77103    0.86726    0.83084   1.00
H2       0.85419    0.88932    0.85470   1.00
H2       0.84571    0.84907    0.82271   1.00
C5       0.82238    0.84082    0.88180   1.00
H2       0.80629    0.85824    0.90391   1.00
C5       0.85977    0.82453    0.90063   1.00
H2       0.80438    0.81507    0.87298   1.00
C5       0.85463    0.99017    0.67836   1.00
H2       0.86359    1.01215    0.65615   1.00
H2       0.83432    0.96952    0.66359   1.00
C5       0.89033    0.96800    0.69424   1.00
C5       0.91499    0.95225    0.66016   1.00
H2       0.60609    1.19286    0.87045   1.00
C5       0.55262    1.18912    0.83514   1.00
H2       0.58433    1.14323    0.86689   1.00
C5       0.67667    1.03337    0.53044   1.00
H2       0.63351    1.00551    0.56893   1.00
H2       0.65302    1.05293    0.58682   1.00
C5       0.84953    0.80497    0.93976   1.00
H2       0.87356    0.80211    0.88031   1.00
H2       0.88124    0.84937    0.90594   1.00
H2       0.89531    0.93602    0.63882   1.00
H2       0.92976    0.97761    0.64452   1.00
C5       0.94626    0.92417    0.67602   1.00
H2       0.55729    1.20116    0.80450   1.00
H2       0.52901    1.16571    0.83437   1.00
H2       0.54315    1.21374    0.85540   1.00
H2       0.70599    1.01820    0.52640   1.00
H2       0.65522    1.02229    0.50757   1.00
H2       0.68061    1.06621    0.52698   1.00
H2       0.82057    0.78889    0.93687   1.00
H2       0.87345    0.78336    0.94794   1.00
H2       0.84701    0.82819    0.96343   1.00
H2       0.93448    0.89307    0.67558   1.00
H2       0.97347    0.92598    0.65699   1.00
H2       0.95398    0.93266    0.70723   1.00
C5       0.36782    0.82715    0.85061   1.00
H2       0.35255    0.84240    0.82645   1.00
H2       0.38910    0.84850    0.86252   1.00
C5       0.33806    0.81544    0.88216   1.00
C5       0.32877    0.85022    0.90903   1.00
H2       0.34985    0.79105    0.90008   1.00
O3       0.52000    0.70199    0.80206   1.00
C4       0.47900    0.75008    0.74959   1.00
C3c      0.45757    0.77621    0.77276   1.00
H1       0.47275    0.79697    0.79102   1.00
C3d      0.45865    0.72364    0.72558   1.00
C3       0.41646    0.77567    0.77323   1.00
O2       0.39752    0.80513    0.79287   1.00
C3       0.41773    0.72252    0.72654   1.00
H1       0.40343    0.70081    0.70867   1.00
C2       0.39561    0.74845    0.75012   1.00
C5       0.52121    0.66264    0.78991   1.00
H2       0.55162    0.65121    0.78824   1.00
H2       0.50734    0.65896    0.76068   1.00
C5       0.49871    0.63860    0.81982   1.00
H2       0.46863    0.65071    0.82230   1.00
H2       0.51302    0.64219    0.84881   1.00
C5       0.49738    0.59527    0.80802   1.00
H2       0.52732    0.58306    0.80523   1.00
H2       0.48189    0.59151    0.77973   1.00
C5       0.47555    0.57149    0.83927   1.00
C5       0.48895    0.71064    0.66776   1.00
C5       0.38930    0.79319    0.83150   1.00
H2       0.50912    0.73587    0.67088   1.00
H2       0.46288    0.72016    0.65074   1.00
H2       0.41700    0.78695    0.84744   1.00
H2       0.37105    0.76614    0.83261   1.00
H2       0.30970    0.80629    0.86886   1.00
H2       0.55753    0.71235    0.61871   1.00
H2       0.51237    0.71201    0.59088   1.00
C2       0.60395    0.74733    0.75023   1.00
C3       0.58403    0.77320    0.72511   1.00
O2       0.60326    0.79041    0.69421   1.00
C3       0.58174    0.72412    0.77617   1.00
H1       0.59615    0.70477    0.79647   1.00
C3a      0.54287    0.77456    0.72570   1.00
H1       0.52798    0.79287    0.70475   1.00
C3b      0.54078    0.72464    0.77582   1.00
C4       0.52100    0.74992    0.75041   1.00
O3       0.47833    0.69537    0.70449   1.00
C5       0.61280    0.82941    0.70331   1.00
H2       0.58609    0.84690    0.70986   1.00
C5       0.63326    0.84648    0.66769   1.00
H2       0.63274    0.83084    0.72897   1.00
H2       0.61068    0.85470    0.64581   1.00
H2       0.65093    0.82271    0.65429   1.00
C5       0.65918    0.88180    0.67762   1.00
H2       0.64176    0.90391    0.69371   1.00
C5       0.67547    0.90063    0.64023   1.00
H2       0.68493    0.87298    0.69562   1.00
C5       0.50983    0.67836    0.64537   1.00
H2       0.48785    0.65615    0.63641   1.00
H2       0.53048    0.66359    0.66568   1.00
C5       0.53200    0.69424    0.60967   1.00
C5       0.54775    0.66016    0.58501   1.00
H2       0.30714    0.87045    0.89391   1.00
C5       0.31088    0.83514    0.94738   1.00
H2       0.35677    0.86689    0.91567   1.00
C5       0.46663    0.53044    0.82333   1.00
H2       0.49449    0.56893    0.86649   1.00
H2       0.44707    0.58682    0.84698   1.00
C5       0.69503    0.93976    0.65047   1.00
H2       0.69789    0.88031    0.62644   1.00
H2       0.65063    0.90594    0.61876   1.00
H2       0.56398    0.63882    0.60469   1.00
H2       0.52239    0.64452    0.57024   1.00
C5       0.57583    0.67602    0.55374   1.00
H2       0.29884    0.80450    0.94271   1.00
H2       0.33429    0.83437    0.97099   1.00
H2       0.28626    0.85540    0.95685   1.00
H2       0.48180    0.52640    0.79401   1.00
H2       0.47771    0.50757    0.84478   1.00
H2       0.43379    0.52698    0.81939   1.00
H2       0.71111    0.93687    0.67943   1.00
H2       0.71664    0.94794    0.62655   1.00
H2       0.67181    0.96343    0.65299   1.00
H2       0.60693    0.67558    0.56552   1.00
H2       0.57402    0.65699    0.52653   1.00
H2       0.56734    0.70723    0.54602   1.00
C5       1.13218    0.82715    0.64939   1.00
H2       1.14745    0.84240    0.67355   1.00
H2       1.11090    0.84850    0.63748   1.00
C5       1.16194    0.81544    0.61784   1.00
C5       1.17123    0.85022    0.59097   1.00
H2       1.15015    0.79105    0.59992   1.00
O3       0.98000    0.70199    0.69794   1.00
C4       1.02100    0.75008    0.75041   1.00
C3c      1.04243    0.77621    0.72724   1.00
H1       1.02725    0.79697    0.70898   1.00
C3d      1.04135    0.72364    0.77442   1.00
C3       1.08354    0.77567    0.72677   1.00
O2       1.10248    0.80513    0.70713   1.00
C3       1.08227    0.72252    0.77346   1.00
H1       1.09657    0.70081    0.79133   1.00
C2       1.10439    0.74845    0.74988   1.00
C5       0.97879    0.66264    0.71009   1.00
H2       0.94838    0.65121    0.71176   1.00
H2       0.99266    0.65896    0.73932   1.00
C5       1.00129    0.63860    0.68018   1.00
H2       1.03137    0.65071    0.67770   1.00
H2       0.98698    0.64219    0.65119   1.00
C5       1.00262    0.59527    0.69198   1.00
H2       0.97268    0.58306    0.69477   1.00
H2       1.01811    0.59151    0.72027   1.00
C5       1.02445    0.57149    0.66073   1.00
C5       1.01105    0.71064    0.83224   1.00
C5       1.11070    0.79319    0.66850   1.00
H2       0.99088    0.73587    0.82912   1.00
H2       1.03712    0.72016    0.84926   1.00
H2       1.08300    0.78695    0.65256   1.00
H2       1.12895    0.76614    0.66739   1.00
H2       1.19030    0.80629    0.63114   1.00
H2       0.94247    0.71235    0.88129   1.00
H2       0.98763    0.71201    0.90912   1.00
C2       0.89605    0.74733    0.74977   1.00
C3       0.91597    0.77320    0.77489   1.00
O2       0.89674    0.79041    0.80579   1.00
C3       0.91826    0.72412    0.72383   1.00
H1       0.90385    0.70477    0.70353   1.00
C3a      0.95713    0.77456    0.77430   1.00
H1       0.97202    0.79287    0.79525   1.00
C3b      0.95922    0.72464    0.72418   1.00
C4       0.97900    0.74992    0.74959   1.00
O3       1.02167    0.69537    0.79551   1.00
C5       0.88720    0.82941    0.79669   1.00
H2       0.91391    0.84690    0.79014   1.00
C5       0.86674    0.84648    0.83231   1.00
H2       0.86726    0.83084    0.77103   1.00
H2       0.88932    0.85470    0.85419   1.00
H2       0.84907    0.82271    0.84571   1.00
C5       0.84082    0.88180    0.82238   1.00
H2       0.85824    0.90391    0.80629   1.00
C5       0.82453    0.90063    0.85977   1.00
H2       0.81507    0.87298    0.80438   1.00
C5       0.99017    0.67836    0.85463   1.00
H2       1.01215    0.65615    0.86359   1.00
H2       0.96952    0.66359    0.83432   1.00
C5       0.96800    0.69424    0.89033   1.00
C5       0.95225    0.66016    0.91499   1.00
H2       1.19286    0.87045    0.60609   1.00
C5       1.18912    0.83514    0.55262   1.00
H2       1.14323    0.86689    0.58433   1.00
C5       1.03337    0.53044    0.67667   1.00
H2       1.00551    0.56893    0.63351   1.00
H2       1.05293    0.58682    0.65302   1.00
C5       0.80497    0.93976    0.84953   1.00
H2       0.80211    0.88031    0.87356   1.00
H2       0.84937    0.90594    0.88124   1.00
H2       0.93602    0.63882    0.89531   1.00
H2       0.97761    0.64452    0.92976   1.00
C5       0.92417    0.67602    0.94626   1.00
H2       1.20116    0.80450    0.55729   1.00
H2       1.16571    0.83437    0.52901   1.00
H2       1.21374    0.85540    0.54315   1.00
H2       1.01820    0.52640    0.70599   1.00
H2       1.02229    0.50757    0.65522   1.00
H2       1.06621    0.52698    0.68061   1.00
H2       0.78889    0.93687    0.82057   1.00
H2       0.78336    0.94794    0.87345   1.00
H2       0.82819    0.96343    0.84701   1.00
H2       0.89307    0.67558    0.93448   1.00
H2       0.92598    0.65699    0.97347   1.00
H2       0.93266    0.70723    0.95398   1.00
C5       0.85061    0.36782    0.82715   1.00
H2       0.82645    0.35255    0.84240   1.00
H2       0.86252    0.38910    0.84850   1.00
C5       0.88216    0.33806    0.81544   1.00
C5       0.90903    0.32877    0.85022   1.00
H2       0.90008    0.34985    0.79105   1.00
O3       0.80206    0.52000    0.70199   1.00
C4       0.74959    0.47900    0.75008   1.00
C3c      0.77276    0.45757    0.77621   1.00
H1       0.79102    0.47275    0.79697   1.00
C3d      0.72558    0.45865    0.72364   1.00
C3       0.77323    0.41646    0.77567   1.00
O2       0.79287    0.39752    0.80513   1.00
C3       0.72654    0.41773    0.72252   1.00
H1       0.70867    0.40343    0.70081   1.00
C2       0.75012    0.39561    0.74845   1.00
C5       0.78991    0.52121    0.66264   1.00
H2       0.78824    0.55162    0.65121   1.00
H2       0.76068    0.50734    0.65896   1.00
C5       0.81982    0.49871    0.63860   1.00
H2       0.82230    0.46863    0.65071   1.00
H2       0.84881    0.51302    0.64219   1.00
C5       0.80802    0.49738    0.59527   1.00
H2       0.80523    0.52732    0.58306   1.00
H2       0.77973    0.48189    0.59151   1.00
C5       0.83927    0.47555    0.57149   1.00
C5       0.66776    0.48895    0.71064   1.00
C5       0.83150    0.38930    0.79319   1.00
H2       0.67088    0.50912    0.73587   1.00
H2       0.65074    0.46288    0.72016   1.00
H2       0.84744    0.41700    0.78695   1.00
H2       0.83261    0.37105    0.76614   1.00
H2       0.86886    0.30970    0.80629   1.00
H2       0.61871    0.55753    0.71235   1.00
H2       0.59088    0.51237    0.71201   1.00
C2       0.75023    0.60395    0.74733   1.00
C3       0.72511    0.58403    0.77320   1.00
O2       0.69421    0.60326    0.79041   1.00
C3       0.77617    0.58174    0.72412   1.00
H1       0.79647    0.59615    0.70477   1.00
C3a      0.72570    0.54287    0.77456   1.00
H1       0.70475    0.52798    0.79287   1.00
C3b      0.77582    0.54078    0.72464   1.00
C4       0.75041    0.52100    0.74992   1.00
O3       0.70449    0.47833    0.69537   1.00
C5       0.70331    0.61280    0.82941   1.00
H2       0.70986    0.58609    0.84690   1.00
C5       0.66769    0.63326    0.84648   1.00
H2       0.72897    0.63274    0.83084   1.00
H2       0.64581    0.61068    0.85470   1.00
H2       0.65429    0.65093    0.82271   1.00
C5       0.67762    0.65918    0.88180   1.00
H2       0.69371    0.64176    0.90391   1.00
C5       0.64023    0.67547    0.90063   1.00
H2       0.69562    0.68493    0.87298   1.00
C5       0.64537    0.50983    0.67836   1.00
H2       0.63641    0.48785    0.65615   1.00
H2       0.66568    0.53048    0.66359   1.00
C5       0.60967    0.53200    0.69424   1.00
C5       0.58501    0.54775    0.66016   1.00
H2       0.89391    0.30714    0.87045   1.00
C5       0.94738    0.31088    0.83514   1.00
H2       0.91567    0.35677    0.86689   1.00
C5       0.82333    0.46663    0.53044   1.00
H2       0.86649    0.49449    0.56893   1.00
H2       0.84698    0.44707    0.58682   1.00
C5       0.65047    0.69503    0.93976   1.00
H2       0.62644    0.69789    0.88031   1.00
H2       0.61876    0.65063    0.90594   1.00
H2       0.60469    0.56398    0.63882   1.00
H2       0.57024    0.52239    0.64452   1.00
C5       0.55374    0.57583    0.67602   1.00
H2       0.94271    0.29884    0.80450   1.00
H2       0.97099    0.33429    0.83437   1.00
H2       0.95685    0.28626    0.85540   1.00
H2       0.79401    0.48180    0.52640   1.00
H2       0.84478    0.47771    0.50757   1.00
H2       0.81939    0.43379    0.52698   1.00
H2       0.67943    0.71111    0.93687   1.00
H2       0.62655    0.71664    0.94794   1.00
H2       0.65299    0.67181    0.96343   1.00
H2       0.56552    0.60693    0.67558   1.00
H2       0.52653    0.57402    0.65699   1.00
H2       0.54602    0.56734    0.70723   1.00
C5       0.82715    0.85061    0.36782   1.00
H2       0.84240    0.82645    0.35255   1.00
H2       0.84850    0.86252    0.38910   1.00
C5       0.81544    0.88216    0.33806   1.00
C5       0.85022    0.90903    0.32877   1.00
H2       0.79105    0.90008    0.34985   1.00
O3       0.70199    0.80206    0.52000   1.00
C4       0.75008    0.74959    0.47900   1.00
C3c      0.77621    0.77276    0.45757   1.00
H1       0.79697    0.79102    0.47275   1.00
C3d      0.72364    0.72558    0.45865   1.00
C3       0.77567    0.77323    0.41646   1.00
O2       0.80513    0.79287    0.39752   1.00
C3       0.72252    0.72654    0.41773   1.00
H1       0.70081    0.70867    0.40343   1.00
C2       0.74845    0.75012    0.39561   1.00
C5       0.66264    0.78991    0.52121   1.00
H2       0.65121    0.78824    0.55162   1.00
H2       0.65896    0.76068    0.50734   1.00
C5       0.63860    0.81982    0.49871   1.00
H2       0.65071    0.82230    0.46863   1.00
H2       0.64219    0.84881    0.51302   1.00
C5       0.59527    0.80802    0.49738   1.00
H2       0.58306    0.80523    0.52732   1.00
H2       0.59151    0.77973    0.48189   1.00
C5       0.57149    0.83927    0.47555   1.00
C5       0.71064    0.66776    0.48895   1.00
C5       0.79319    0.83150    0.38930   1.00
H2       0.73587    0.67088    0.50912   1.00
H2       0.72016    0.65074    0.46288   1.00
H2       0.78695    0.84744    0.41700   1.00
H2       0.76614    0.83261    0.37105   1.00
H2       0.80629    0.86886    0.30970   1.00
H2       0.71235    0.61871    0.55753   1.00
H2       0.71201    0.59088    0.51237   1.00
C2       0.74733    0.75023    0.60395   1.00
C3       0.77320    0.72511    0.58403   1.00
O2       0.79041    0.69421    0.60326   1.00
C3       0.72412    0.77617    0.58174   1.00
H1       0.70477    0.79647    0.59615   1.00
C3a      0.77456    0.72570    0.54287   1.00
H1       0.79287    0.70475    0.52798   1.00
C3b      0.72464    0.77582    0.54078   1.00
C4       0.74992    0.75041    0.52100   1.00
O3       0.69537    0.70449    0.47833   1.00
C5       0.82941    0.70331    0.61280   1.00
H2       0.84690    0.70986    0.58609   1.00
C5       0.84648    0.66769    0.63326   1.00
H2       0.83084    0.72897    0.63274   1.00
H2       0.85470    0.64581    0.61068   1.00
H2       0.82271    0.65429    0.65093   1.00
C5       0.88180    0.67762    0.65918   1.00
H2       0.90391    0.69371    0.64176   1.00
C5       0.90063    0.64023    0.67547   1.00
H2       0.87298    0.69562    0.68493   1.00
C5       0.67836    0.64537    0.50983   1.00
H2       0.65615    0.63641    0.48785   1.00
H2       0.66359    0.66568    0.53048   1.00
C5       0.69424    0.60967    0.53200   1.00
C5       0.66016    0.58501    0.54775   1.00
H2       0.87045    0.89391    0.30714   1.00
C5       0.83514    0.94738    0.31088   1.00
H2       0.86689    0.91567    0.35677   1.00
C5       0.53044    0.82333    0.46663   1.00
H2       0.56893    0.86649    0.49449   1.00
H2       0.58682    0.84698    0.44707   1.00
C5       0.93976    0.65047    0.69503   1.00
H2       0.88031    0.62644    0.69789   1.00
H2       0.90594    0.61876    0.65063   1.00
H2       0.63882    0.60469    0.56398   1.00
H2       0.64452    0.57024    0.52239   1.00
C5       0.67602    0.55374    0.57583   1.00
H2       0.80450    0.94271    0.29884   1.00
H2       0.83437    0.97099    0.33429   1.00
H2       0.85540    0.95685    0.28626   1.00
H2       0.52640    0.79401    0.48180   1.00
H2       0.50757    0.84478    0.47771   1.00
H2       0.52698    0.81939    0.43379   1.00
H2       0.93687    0.67943    0.71111   1.00
H2       0.94794    0.62655    0.71664   1.00
H2       0.96343    0.65299    0.67181   1.00
H2       0.67558    0.56552    0.60693   1.00
H2       0.65699    0.52653    0.57402   1.00
H2       0.70723    0.54602    0.56734   1.00
C5       0.32715    0.14939    1.13218   1.00
H2       0.34240    0.17355    1.14745   1.00
H2       0.34850    0.13748    1.11090   1.00
C5       0.31544    0.11784    1.16194   1.00
C5       0.35022    0.09097    1.17123   1.00
H2       0.29105    0.09992    1.15015   1.00
O3       0.20199    0.19794    0.98000   1.00
C4       0.25008    0.25041    1.02100   1.00
C3c      0.27621    0.22724    1.04243   1.00
H1       0.29697    0.20898    1.02725   1.00
C3d      0.22364    0.27442    1.04135   1.00
C3       0.27567    0.22677    1.08354   1.00
O2       0.30513    0.20713    1.10248   1.00
C3       0.22252    0.27346    1.08227   1.00
H1       0.20081    0.29133    1.09657   1.00
C2       0.24845    0.24988    1.10439   1.00
C5       0.16264    0.21009    0.97879   1.00
H2       0.15121    0.21176    0.94838   1.00
H2       0.15896    0.23932    0.99266   1.00
C5       0.13860    0.18018    1.00129   1.00
H2       0.15071    0.17770    1.03137   1.00
H2       0.14219    0.15119    0.98698   1.00
C5       0.09527    0.19198    1.00262   1.00
H2       0.08306    0.19477    0.97268   1.00
H2       0.09151    0.22027    1.01811   1.00
C5       0.07149    0.16073    1.02445   1.00
C5       0.21064    0.33224    1.01105   1.00
C5       0.29319    0.16850    1.11070   1.00
H2       0.23587    0.32912    0.99088   1.00
H2       0.22016    0.34926    1.03712   1.00
H2       0.28695    0.15256    1.08300   1.00
H2       0.26614    0.16739    1.12895   1.00
H2       0.30629    0.13114    1.19030   1.00
H2       0.21235    0.38129    0.94247   1.00
H2       0.21201    0.40912    0.98763   1.00
C2       0.24733    0.24977    0.89605   1.00
C3       0.27320    0.27489    0.91597   1.00
O2       0.29041    0.30579    0.89674   1.00
C3       0.22412    0.22383    0.91826   1.00
H1       0.20477    0.20353    0.90385   1.00
C3a      0.27456    0.27430    0.95713   1.00
H1       0.29287    0.29525    0.97202   1.00
C3b      0.22464    0.22418    0.95922   1.00
C4       0.24992    0.24959    0.97900   1.00
O3       0.19537    0.29551    1.02167   1.00
C5       0.32941    0.29669    0.88720   1.00
H2       0.34690    0.29014    0.91391   1.00
C5       0.34648    0.33231    0.86674   1.00
H2       0.33084    0.27103    0.86726   1.00
H2       0.35470    0.35419    0.88932   1.00
H2       0.32271    0.34571    0.84907   1.00
C5       0.38180    0.32238    0.84082   1.00
H2       0.40391    0.30629    0.85824   1.00
C5       0.40063    0.35977    0.82453   1.00
H2       0.37298    0.30438    0.81507   1.00
C5       0.17836    0.35463    0.99017   1.00
H2       0.15615    0.36359    1.01215   1.00
H2       0.16359    0.33432    0.96952   1.00
C5       0.19424    0.39033    0.96800   1.00
C5       0.16016    0.41499    0.95225   1.00
H2       0.37045    0.10609    1.19286   1.00
C5       0.33514    0.05262    1.18912   1.00
H2       0.36689    0.08433    1.14323   1.00
C5       0.03044    0.17667    1.03337   1.00
H2       0.06893    0.13351    1.00551   1.00
H2       0.08682    0.15302    1.05293   1.00
C5       0.43976    0.34953    0.80497   1.00
H2       0.38031    0.37356    0.80211   1.00
H2       0.40594    0.38124    0.84937   1.00
H2       0.13882    0.39531    0.93602   1.00
H2       0.14452    0.42976    0.97761   1.00
C5       0.17602    0.44626    0.92417   1.00
H2       0.30450    0.05729    1.20116   1.00
H2       0.33437    0.02901    1.16571   1.00
H2       0.35540    0.04315    1.21374   1.00
H2       0.02640    0.20599    1.01820   1.00
H2       0.00757    0.15522    1.02229   1.00
H2       0.02698    0.18061    1.06621   1.00
H2       0.43687    0.32057    0.78889   1.00
H2       0.44794    0.37345    0.78336   1.00
H2       0.46343    0.34701    0.82819   1.00
H2       0.17558    0.43448    0.89307   1.00
H2       0.15699    0.47347    0.92598   1.00
H2       0.20723    0.45398    0.93266   1.00
C5       0.14939    0.63218    0.82715   1.00
H2       0.17355    0.64745    0.84240   1.00
H2       0.13748    0.61090    0.84850   1.00
C5       0.11784    0.66194    0.81544   1.00
C5       0.09097    0.67123    0.85022   1.00
H2       0.09992    0.65015    0.79105   1.00
O3       0.19794    0.48000    0.70199   1.00
C4       0.25041    0.52100    0.75008   1.00
C3c      0.22724    0.54243    0.77621   1.00
H1       0.20898    0.52725    0.79697   1.00
C3d      0.27442    0.54135    0.72364   1.00
C3       0.22677    0.58354    0.77567   1.00
O2       0.20713    0.60248    0.80513   1.00
C3       0.27346    0.58227    0.72252   1.00
H1       0.29133    0.59657    0.70081   1.00
C2       0.24988    0.60439    0.74845   1.00
C5       0.21009    0.47879    0.66264   1.00
H2       0.21176    0.44838    0.65121   1.00
H2       0.23932    0.49266    0.65896   1.00
C5       0.18018    0.50129    0.63860   1.00
H2       0.17770    0.53137    0.65071   1.00
H2       0.15119    0.48698    0.64219   1.00
C5       0.19198    0.50262    0.59527   1.00
H2       0.19477    0.47268    0.58306   1.00
H2       0.22027    0.51811    0.59151   1.00
C5       0.16073    0.52445    0.57149   1.00
C5       0.33224    0.51105    0.71064   1.00
C5       0.16850    0.61070    0.79319   1.00
H2       0.32912    0.49088    0.73587   1.00
H2       0.34926    0.53712    0.72016   1.00
H2       0.15256    0.58300    0.78695   1.00
H2       0.16739    0.62895    0.76614   1.00
H2       0.13114    0.69030    0.80629   1.00
H2       0.38129    0.44247    0.71235   1.00
H2       0.40912    0.48763    0.71201   1.00
C2       0.24977    0.39605    0.74733   1.00
C3       0.27489    0.41597    0.77320   1.00
O2       0.30579    0.39674    0.79041   1.00
C3       0.22383    0.41826    0.72412   1.00
H1       0.20353    0.40385    0.70477   1.00
C3a      0.27430    0.45713    0.77456   1.00
H1       0.29525    0.47202    0.79287   1.00
C3b      0.22418    0.45922    0.72464   1.00
C4       0.24959    0.47900    0.74992   1.00
O3       0.29551    0.52167    0.69537   1.00
C5       0.29669    0.38720    0.82941   1.00
H2       0.29014    0.41391    0.84690   1.00
C5       0.33231    0.36674    0.84648   1.00
H2       0.27103    0.36726    0.83084   1.00
H2       0.35419    0.38932    0.85470   1.00
H2       0.34571    0.34907    0.82271   1.00
C5       0.32238    0.34082    0.88180   1.00
H2       0.30629    0.35824    0.90391   1.00
C5       0.35977    0.32453    0.90063   1.00
H2       0.30438    0.31507    0.87298   1.00
C5       0.35463    0.49017    0.67836   1.00
H2       0.36359    0.51215    0.65615   1.00
H2       0.33432    0.46952    0.66359   1.00
C5       0.39033    0.46800    0.69424   1.00
C5       0.41499    0.45225    0.66016   1.00
H2       0.10609    0.69286    0.87045   1.00
C5       0.05262    0.68912    0.83514   1.00
H2       0.08433    0.64323    0.86689   1.00
C5       0.17667    0.53337    0.53044   1.00
H2       0.13351    0.50551    0.56893   1.00
H2       0.15302    0.55293    0.58682   1.00
C5       0.34953    0.30497    0.93976   1.00
H2       0.37356    0.30211    0.88031   1.00
H2       0.38124    0.34937    0.90594   1.00
H2       0.39531    0.43602    0.63882   1.00
H2       0.42976    0.47761    0.64452   1.00
C5       0.44626    0.42417    0.67602   1.00
H2       0.05729    0.70116    0.80450   1.00
H2       0.02901    0.66571    0.83437   1.00
H2       0.04315    0.71374    0.85540   1.00
H2       0.20599    0.51820    0.52640   1.00
H2       0.15522    0.52229    0.50757   1.00
H2       0.18061    0.56621    0.52698   1.00
H2       0.32057    0.28889    0.93687   1.00
H2       0.37345    0.28336    0.94794   1.00
H2       0.34701    0.32819    0.96343   1.00
H2       0.43448    0.39307    0.67558   1.00
H2       0.47347    0.42598    0.65699   1.00
H2       0.45398    0.43266    0.70723   1.00
C5       -0.13218   0.32715    0.85061   1.00
H2       -0.14745   0.34240    0.82645   1.00
H2       -0.11090   0.34850    0.86252   1.00
C5       -0.16194   0.31544    0.88216   1.00
C5       -0.17123   0.35022    0.90903   1.00
H2       -0.15015   0.29105    0.90008   1.00
O3       0.02000    0.20199    0.80206   1.00
C4       -0.02100   0.25008    0.74959   1.00
C3c      -0.04243   0.27621    0.77276   1.00
H1       -0.02725   0.29697    0.79102   1.00
C3d      -0.04135   0.22364    0.72558   1.00
C3       -0.08354   0.27567    0.77323   1.00
O2       -0.10248   0.30513    0.79287   1.00
C3       -0.08227   0.22252    0.72654   1.00
H1       -0.09657   0.20081    0.70867   1.00
C2       -0.10439   0.24845    0.75012   1.00
C5       0.02121    0.16264    0.78991   1.00
H2       0.05162    0.15121    0.78824   1.00
H2       0.00734    0.15896    0.76068   1.00
C5       -0.00129   0.13860    0.81982   1.00
H2       -0.03137   0.15071    0.82230   1.00
H2       0.01302    0.14219    0.84881   1.00
C5       -0.00262   0.09527    0.80802   1.00
H2       0.02732    0.08306    0.80523   1.00
H2       -0.01811   0.09151    0.77973   1.00
C5       -0.02445   0.07149    0.83927   1.00
C5       -0.01105   0.21064    0.66776   1.00
C5       -0.11070   0.29319    0.83150   1.00
H2       0.00912    0.23587    0.67088   1.00
H2       -0.03712   0.22016    0.65074   1.00
H2       -0.08300   0.28695    0.84744   1.00
H2       -0.12895   0.26614    0.83261   1.00
H2       -0.19030   0.30629    0.86886   1.00
H2       0.05753    0.21235    0.61871   1.00
H2       0.01237    0.21201    0.59088   1.00
C2       0.10395    0.24733    0.75023   1.00
C3       0.08403    0.27320    0.72511   1.00
O2       0.10326    0.29041    0.69421   1.00
C3       0.08174    0.22412    0.77617   1.00
H1       0.09615    0.20477    0.79647   1.00
C3a      0.04287    0.27456    0.72570   1.00
H1       0.02798    0.29287    0.70475   1.00
C3b      0.04078    0.22464    0.77582   1.00
C4       0.02100    0.24992    0.75041   1.00
O3       -0.02167   0.19537    0.70449   1.00
C5       0.11280    0.32941    0.70331   1.00
H2       0.08609    0.34690    0.70986   1.00
C5       0.13326    0.34648    0.66769   1.00
H2       0.13274    0.33084    0.72897   1.00
H2       0.11068    0.35470    0.64581   1.00
H2       0.15093    0.32271    0.65429   1.00
C5       0.15918    0.38180    0.67762   1.00
H2       0.14176    0.40391    0.69371   1.00
C5       0.17547    0.40063    0.64023   1.00
H2       0.18493    0.37298    0.69562   1.00
C5       0.00983    0.17836    0.64537   1.00
H2       -0.01215   0.15615    0.63641   1.00
H2       0.03048    0.16359    0.66568   1.00
C5       0.03200    0.19424    0.60967   1.00
C5       0.04775    0.16016    0.58501   1.00
H2       -0.19286   0.37045    0.89391   1.00
C5       -0.18912   0.33514    0.94738   1.00
H2       -0.14323   0.36689    0.91567   1.00
C5       -0.03337   0.03044    0.82333   1.00
H2       -0.00551   0.06893    0.86649   1.00
H2       -0.05293   0.08682    0.84698   1.00
C5       0.19503    0.43976    0.65047   1.00
H2       0.19789    0.38031    0.62644   1.00
H2       0.15063    0.40594    0.61876   1.00
H2       0.06398    0.13882    0.60469   1.00
H2       0.02239    0.14452    0.57024   1.00
C5       0.07583    0.17602    0.55374   1.00
H2       -0.20116   0.30450    0.94271   1.00
H2       -0.16571   0.33437    0.97099   1.00
H2       -0.21374   0.35540    0.95685   1.00
H2       -0.01820   0.02640    0.79401   1.00
H2       -0.02229   0.00757    0.84478   1.00
H2       -0.06621   0.02698    0.81939   1.00
H2       0.21111    0.43687    0.67943   1.00
H2       0.21664    0.44794    0.62655   1.00
H2       0.17181    0.46343    0.65299   1.00
H2       0.10693    0.17558    0.56552   1.00
H2       0.07402    0.15699    0.52653   1.00
H2       0.06734    0.20723    0.54602   1.00
C5       0.63218    0.32715    0.64939   1.00
H2       0.64745    0.34240    0.67355   1.00
H2       0.61090    0.34850    0.63748   1.00
C5       0.66194    0.31544    0.61784   1.00
C5       0.67123    0.35022    0.59097   1.00
H2       0.65015    0.29105    0.59992   1.00
O3       0.48000    0.20199    0.69794   1.00
C4       0.52100    0.25008    0.75041   1.00
C3c      0.54243    0.27621    0.72724   1.00
H1       0.52725    0.29697    0.70898   1.00
C3d      0.54135    0.22364    0.77442   1.00
C3       0.58354    0.27567    0.72677   1.00
O2       0.60248    0.30513    0.70713   1.00
C3       0.58227    0.22252    0.77346   1.00
H1       0.59657    0.20081    0.79133   1.00
C2       0.60439    0.24845    0.74988   1.00
C5       0.47879    0.16264    0.71009   1.00
H2       0.44838    0.15121    0.71176   1.00
H2       0.49266    0.15896    0.73932   1.00
C5       0.50129    0.13860    0.68018   1.00
H2       0.53137    0.15071    0.67770   1.00
H2       0.48698    0.14219    0.65119   1.00
C5       0.50262    0.09527    0.69198   1.00
H2       0.47268    0.08306    0.69477   1.00
H2       0.51811    0.09151    0.72027   1.00
C5       0.52445    0.07149    0.66073   1.00
C5       0.51105    0.21064    0.83224   1.00
C5       0.61070    0.29319    0.66850   1.00
H2       0.49088    0.23587    0.82912   1.00
H2       0.53712    0.22016    0.84926   1.00
H2       0.58300    0.28695    0.65256   1.00
H2       0.62895    0.26614    0.66739   1.00
H2       0.69030    0.30629    0.63114   1.00
H2       0.44247    0.21235    0.88129   1.00
H2       0.48763    0.21201    0.90912   1.00
C2       0.39605    0.24733    0.74977   1.00
C3       0.41597    0.27320    0.77489   1.00
O2       0.39674    0.29041    0.80579   1.00
C3       0.41826    0.22412    0.72383   1.00
H1       0.40385    0.20477    0.70353   1.00
C3a      0.45713    0.27456    0.77430   1.00
H1       0.47202    0.29287    0.79525   1.00
C3b      0.45922    0.22464    0.72418   1.00
C4       0.47900    0.24992    0.74959   1.00
O3       0.52167    0.19537    0.79551   1.00
C5       0.38720    0.32941    0.79669   1.00
H2       0.41391    0.34690    0.79014   1.00
C5       0.36674    0.34648    0.83231   1.00
H2       0.36726    0.33084    0.77103   1.00
H2       0.38932    0.35470    0.85419   1.00
H2       0.34907    0.32271    0.84571   1.00
C5       0.34082    0.38180    0.82238   1.00
H2       0.35824    0.40391    0.80629   1.00
C5       0.32453    0.40063    0.85977   1.00
H2       0.31507    0.37298    0.80438   1.00
C5       0.49017    0.17836    0.85463   1.00
H2       0.51215    0.15615    0.86359   1.00
H2       0.46952    0.16359    0.83432   1.00
C5       0.46800    0.19424    0.89033   1.00
C5       0.45225    0.16016    0.91499   1.00
H2       0.69286    0.37045    0.60609   1.00
C5       0.68912    0.33514    0.55262   1.00
H2       0.64323    0.36689    0.58433   1.00
C5       0.53337    0.03044    0.67667   1.00
H2       0.50551    0.06893    0.63351   1.00
H2       0.55293    0.08682    0.65302   1.00
C5       0.30497    0.43976    0.84953   1.00
H2       0.30211    0.38031    0.87356   1.00
H2       0.34937    0.40594    0.88124   1.00
H2       0.43602    0.13882    0.89531   1.00
H2       0.47761    0.14452    0.92976   1.00
C5       0.42417    0.17602    0.94626   1.00
H2       0.70116    0.30450    0.55729   1.00
H2       0.66571    0.33437    0.52901   1.00
H2       0.71374    0.35540    0.54315   1.00
H2       0.51820    0.02640    0.70599   1.00
H2       0.52229    0.00757    0.65522   1.00
H2       0.56621    0.02698    0.68061   1.00
H2       0.28889    0.43687    0.82057   1.00
H2       0.28336    0.44794    0.87345   1.00
H2       0.32819    0.46343    0.84701   1.00
H2       0.39307    0.17558    0.93448   1.00
H2       0.42598    0.15699    0.97347   1.00
H2       0.43266    0.20723    0.95398   1.00
C5       0.35061    -0.13218   0.82715   1.00
H2       0.32645    -0.14745   0.84240   1.00
H2       0.36252    -0.11090   0.84850   1.00
C5       0.38216    -0.16194   0.81544   1.00
C5       0.40903    -0.17123   0.85022   1.00
H2       0.40008    -0.15015   0.79105   1.00
O3       0.30206    0.02000    0.70199   1.00
C4       0.24959    -0.02100   0.75008   1.00
C3c      0.27276    -0.04243   0.77621   1.00
H1       0.29102    -0.02725   0.79697   1.00
C3d      0.22558    -0.04135   0.72364   1.00
C3       0.27323    -0.08354   0.77567   1.00
O2       0.29287    -0.10248   0.80513   1.00
C3       0.22654    -0.08227   0.72252   1.00
H1       0.20867    -0.09657   0.70081   1.00
C2       0.25012    -0.10439   0.74845   1.00
C5       0.28991    0.02121    0.66264   1.00
H2       0.28824    0.05162    0.65121   1.00
H2       0.26068    0.00734    0.65896   1.00
C5       0.31982    -0.00129   0.63860   1.00
H2       0.32230    -0.03137   0.65071   1.00
H2       0.34881    0.01302    0.64219   1.00
C5       0.30802    -0.00262   0.59527   1.00
H2       0.30523    0.02732    0.58306   1.00
H2       0.27973    -0.01811   0.59151   1.00
C5       0.33927    -0.02445   0.57149   1.00
C5       0.16776    -0.01105   0.71064   1.00
C5       0.33150    -0.11070   0.79319   1.00
H2       0.17088    0.00912    0.73587   1.00
H2       0.15074    -0.03712   0.72016   1.00
H2       0.34744    -0.08300   0.78695   1.00
H2       0.33261    -0.12895   0.76614   1.00
H2       0.36886    -0.19030   0.80629   1.00
H2       0.11871    0.05753    0.71235   1.00
H2       0.09088    0.01237    0.71201   1.00
C2       0.25023    0.10395    0.74733   1.00
C3       0.22511    0.08403    0.77320   1.00
O2       0.19421    0.10326    0.79041   1.00
C3       0.27617    0.08174    0.72412   1.00
H1       0.29647    0.09615    0.70477   1.00
C3a      0.22570    0.04287    0.77456   1.00
H1       0.20475    0.02798    0.79287   1.00
C3b      0.27582    0.04078    0.72464   1.00
C4       0.25041    0.02100    0.74992   1.00
O3       0.20449    -0.02167   0.69537   1.00
C5       0.20331    0.11280    0.82941   1.00
H2       0.20986    0.08609    0.84690   1.00
C5       0.16769    0.13326    0.84648   1.00
H2       0.22897    0.13274    0.83084   1.00
H2       0.14581    0.11068    0.85470   1.00
H2       0.15429    0.15093    0.82271   1.00
C5       0.17762    0.15918    0.88180   1.00
H2       0.19371    0.14176    0.90391   1.00
C5       0.14023    0.17547    0.90063   1.00
H2       0.19562    0.18493    0.87298   1.00
C5       0.14537    0.00983    0.67836   1.00
H2       0.13641    -0.01215   0.65615   1.00
H2       0.16568    0.03048    0.66359   1.00
C5       0.10967    0.03200    0.69424   1.00
C5       0.08501    0.04775    0.66016   1.00
H2       0.39391    -0.19286   0.87045   1.00
C5       0.44738    -0.18912   0.83514   1.00
H2       0.41567    -0.14323   0.86689   1.00
C5       0.32333    -0.03337   0.53044   1.00
H2       0.36649    -0.00551   0.56893   1.00
H2       0.34698    -0.05293   0.58682   1.00
C5       0.15047    0.19503    0.93976   1.00
H2       0.12644    0.19789    0.88031   1.00
H2       0.11876    0.15063    0.90594   1.00
H2       0.10469    0.06398    0.63882   1.00
H2       0.07024    0.02239    0.64452   1.00
C5       0.05374    0.07583    0.67602   1.00
H2       0.44271    -0.20116   0.80450   1.00
H2       0.47099    -0.16571   0.83437   1.00
H2       0.45685    -0.21374   0.85540   1.00
H2       0.29401    -0.01820   0.52640   1.00
H2       0.34478    -0.02229   0.50757   1.00
H2       0.31939    -0.06621   0.52698   1.00
H2       0.17943    0.21111    0.93687   1.00
H2       0.12655    0.21664    0.94794   1.00
H2       0.15299    0.17181    0.96343   1.00
H2       0.06552    0.10693    0.67558   1.00
H2       0.02653    0.07402    0.65699   1.00
H2       0.04602    0.06734    0.70723   1.00
C5       0.32715    0.35061    0.36782   1.00
H2       0.34240    0.32645    0.35255   1.00
H2       0.34850    0.36252    0.38910   1.00
C5       0.31544    0.38216    0.33806   1.00
C5       0.35022    0.40903    0.32877   1.00
H2       0.29105    0.40008    0.34985   1.00
O3       0.20199    0.30206    0.52000   1.00
C4       0.25008    0.24959    0.47900   1.00
C3c      0.27621    0.27276    0.45757   1.00
H1       0.29697    0.29102    0.47275   1.00
C3d      0.22364    0.22558    0.45865   1.00
C3       0.27567    0.27323    0.41646   1.00
O2       0.30513    0.29287    0.39752   1.00
C3       0.22252    0.22654    0.41773   1.00
H1       0.20081    0.20867    0.40343   1.00
C2       0.24845    0.25012    0.39561   1.00
C5       0.16264    0.28991    0.52121   1.00
H2       0.15121    0.28824    0.55162   1.00
H2       0.15896    0.26068    0.50734   1.00
C5       0.13860    0.31982    0.49871   1.00
H2       0.15071    0.32230    0.46863   1.00
H2       0.14219    0.34881    0.51302   1.00
C5       0.09527    0.30802    0.49738   1.00
H2       0.08306    0.30523    0.52732   1.00
H2       0.09151    0.27973    0.48189   1.00
C5       0.07149    0.33927    0.47555   1.00
C5       0.21064    0.16776    0.48895   1.00
C5       0.29319    0.33150    0.38930   1.00
H2       0.23587    0.17088    0.50912   1.00
H2       0.22016    0.15074    0.46288   1.00
H2       0.28695    0.34744    0.41700   1.00
H2       0.26614    0.33261    0.37105   1.00
H2       0.30629    0.36886    0.30970   1.00
H2       0.21235    0.11871    0.55753   1.00
H2       0.21201    0.09088    0.51237   1.00
C2       0.24733    0.25023    0.60395   1.00
C3       0.27320    0.22511    0.58403   1.00
O2       0.29041    0.19421    0.60326   1.00
C3       0.22412    0.27617    0.58174   1.00
H1       0.20477    0.29647    0.59615   1.00
C3a      0.27456    0.22570    0.54287   1.00
H1       0.29287    0.20475    0.52798   1.00
C3b      0.22464    0.27582    0.54078   1.00
C4       0.24992    0.25041    0.52100   1.00
O3       0.19537    0.20449    0.47833   1.00
C5       0.32941    0.20331    0.61280   1.00
H2       0.34690    0.20986    0.58609   1.00
C5       0.34648    0.16769    0.63326   1.00
H2       0.33084    0.22897    0.63274   1.00
H2       0.35470    0.14581    0.61068   1.00
H2       0.32271    0.15429    0.65093   1.00
C5       0.38180    0.17762    0.65918   1.00
H2       0.40391    0.19371    0.64176   1.00
C5       0.40063    0.14023    0.67547   1.00
H2       0.37298    0.19562    0.68493   1.00
C5       0.17836    0.14537    0.50983   1.00
H2       0.15615    0.13641    0.48785   1.00
H2       0.16359    0.16568    0.53048   1.00
C5       0.19424    0.10967    0.53200   1.00
C5       0.16016    0.08501    0.54775   1.00
H2       0.37045    0.39391    0.30714   1.00
C5       0.33514    0.44738    0.31088   1.00
H2       0.36689    0.41567    0.35677   1.00
C5       0.03044    0.32333    0.46663   1.00
H2       0.06893    0.36649    0.49449   1.00
H2       0.08682    0.34698    0.44707   1.00
C5       0.43976    0.15047    0.69503   1.00
H2       0.38031    0.12644    0.69789   1.00
H2       0.40594    0.11876    0.65063   1.00
H2       0.13882    0.10469    0.56398   1.00
H2       0.14452    0.07024    0.52239   1.00
C5       0.17602    0.05374    0.57583   1.00
H2       0.30450    0.44271    0.29884   1.00
H2       0.33437    0.47099    0.33429   1.00
H2       0.35540    0.45685    0.28626   1.00
H2       0.02640    0.29401    0.48180   1.00
H2       0.00757    0.34478    0.47771   1.00
H2       0.02698    0.31939    0.43379   1.00
H2       0.43687    0.17943    0.71111   1.00
H2       0.44794    0.12655    0.71664   1.00
H2       0.46343    0.15299    0.67181   1.00
H2       0.17558    0.06552    0.60693   1.00
H2       0.15699    0.02653    0.57402   1.00
H2       0.20723    0.04602    0.56734   1.00
C5       0.32715    0.64939    0.63218   1.00
H2       0.34240    0.67355    0.64745   1.00
H2       0.34850    0.63748    0.61090   1.00
C5       0.31544    0.61784    0.66194   1.00
C5       0.35022    0.59097    0.67123   1.00
H2       0.29105    0.59992    0.65015   1.00
O3       0.20199    0.69794    0.48000   1.00
C4       0.25008    0.75041    0.52100   1.00
C3c      0.27621    0.72724    0.54243   1.00
H1       0.29697    0.70898    0.52725   1.00
C3d      0.22364    0.77442    0.54135   1.00
C3       0.27567    0.72677    0.58354   1.00
O2       0.30513    0.70713    0.60248   1.00
C3       0.22252    0.77346    0.58227   1.00
H1       0.20081    0.79133    0.59657   1.00
C2       0.24845    0.74988    0.60439   1.00
C5       0.16264    0.71009    0.47879   1.00
H2       0.15121    0.71176    0.44838   1.00
H2       0.15896    0.73932    0.49266   1.00
C5       0.13860    0.68018    0.50129   1.00
H2       0.15071    0.67770    0.53137   1.00
H2       0.14219    0.65119    0.48698   1.00
C5       0.09527    0.69198    0.50262   1.00
H2       0.08306    0.69477    0.47268   1.00
H2       0.09151    0.72027    0.51811   1.00
C5       0.07149    0.66073    0.52445   1.00
C5       0.21064    0.83224    0.51105   1.00
C5       0.29319    0.66850    0.61070   1.00
H2       0.23587    0.82912    0.49088   1.00
H2       0.22016    0.84926    0.53712   1.00
H2       0.28695    0.65256    0.58300   1.00
H2       0.26614    0.66739    0.62895   1.00
H2       0.30629    0.63114    0.69030   1.00
H2       0.21235    0.88129    0.44247   1.00
H2       0.21201    0.90912    0.48763   1.00
C2       0.24733    0.74977    0.39605   1.00
C3       0.27320    0.77489    0.41597   1.00
O2       0.29041    0.80579    0.39674   1.00
C3       0.22412    0.72383    0.41826   1.00
H1       0.20477    0.70353    0.40385   1.00
C3a      0.27456    0.77430    0.45713   1.00
H1       0.29287    0.79525    0.47202   1.00
C3b      0.22464    0.72418    0.45922   1.00
C4       0.24992    0.74959    0.47900   1.00
O3       0.19537    0.79551    0.52167   1.00
C5       0.32941    0.79669    0.38720   1.00
H2       0.34690    0.79014    0.41391   1.00
C5       0.34648    0.83231    0.36674   1.00
H2       0.33084    0.77103    0.36726   1.00
H2       0.35470    0.85419    0.38932   1.00
H2       0.32271    0.84571    0.34907   1.00
C5       0.38180    0.82238    0.34082   1.00
H2       0.40391    0.80629    0.35824   1.00
C5       0.40063    0.85977    0.32453   1.00
H2       0.37298    0.80438    0.31507   1.00
C5       0.17836    0.85463    0.49017   1.00
H2       0.15615    0.86359    0.51215   1.00
H2       0.16359    0.83432    0.46952   1.00
C5       0.19424    0.89033    0.46800   1.00
C5       0.16016    0.91499    0.45225   1.00
H2       0.37045    0.60609    0.69286   1.00
C5       0.33514    0.55262    0.68912   1.00
H2       0.36689    0.58433    0.64323   1.00
C5       0.03044    0.67667    0.53337   1.00
H2       0.06893    0.63351    0.50551   1.00
H2       0.08682    0.65302    0.55293   1.00
C5       0.43976    0.84953    0.30497   1.00
H2       0.38031    0.87356    0.30211   1.00
H2       0.40594    0.88124    0.34937   1.00
H2       0.13882    0.89531    0.43602   1.00
H2       0.14452    0.92976    0.47761   1.00
C5       0.17602    0.94626    0.42417   1.00
H2       0.30450    0.55729    0.70116   1.00
H2       0.33437    0.52901    0.66571   1.00
H2       0.35540    0.54315    0.71374   1.00
H2       0.02640    0.70599    0.51820   1.00
H2       0.00757    0.65522    0.52229   1.00
H2       0.02698    0.68061    0.56621   1.00
H2       0.43687    0.82057    0.28889   1.00
H2       0.44794    0.87345    0.28336   1.00
H2       0.46343    0.84701    0.32819   1.00
H2       0.17558    0.93448    0.39307   1.00
H2       0.15699    0.97347    0.42598   1.00
H2       0.20723    0.95398    0.43266   1.00
C5       0.14939    1.13218    0.32715   1.00
H2       0.17355    1.14745    0.34240   1.00
H2       0.13748    1.11090    0.34850   1.00
C5       0.11784    1.16194    0.31544   1.00
C5       0.09097    1.17123    0.35022   1.00
H2       0.09992    1.15015    0.29105   1.00
O3       0.19794    0.98000    0.20199   1.00
C4       0.25041    1.02100    0.25008   1.00
C3c      0.22724    1.04243    0.27621   1.00
H1       0.20898    1.02725    0.29697   1.00
C3d      0.27442    1.04135    0.22364   1.00
C3       0.22677    1.08354    0.27567   1.00
O2       0.20713    1.10248    0.30513   1.00
C3       0.27346    1.08227    0.22252   1.00
H1       0.29133    1.09657    0.20081   1.00
C2       0.24988    1.10439    0.24845   1.00
C5       0.21009    0.97879    0.16264   1.00
H2       0.21176    0.94838    0.15121   1.00
H2       0.23932    0.99266    0.15896   1.00
C5       0.18018    1.00129    0.13860   1.00
H2       0.17770    1.03137    0.15071   1.00
H2       0.15119    0.98698    0.14219   1.00
C5       0.19198    1.00262    0.09527   1.00
H2       0.19477    0.97268    0.08306   1.00
H2       0.22027    1.01811    0.09151   1.00
C5       0.16073    1.02445    0.07149   1.00
C5       0.33224    1.01105    0.21064   1.00
C5       0.16850    1.11070    0.29319   1.00
H2       0.32912    0.99088    0.23587   1.00
H2       0.34926    1.03712    0.22016   1.00
H2       0.15256    1.08300    0.28695   1.00
H2       0.16739    1.12895    0.26614   1.00
H2       0.13114    1.19030    0.30629   1.00
H2       0.38129    0.94247    0.21235   1.00
H2       0.40912    0.98763    0.21201   1.00
C2       0.24977    0.89605    0.24733   1.00
C3       0.27489    0.91597    0.27320   1.00
O2       0.30579    0.89674    0.29041   1.00
C3       0.22383    0.91826    0.22412   1.00
H1       0.20353    0.90385    0.20477   1.00
C3a      0.27430    0.95713    0.27456   1.00
H1       0.29525    0.97202    0.29287   1.00
C3b      0.22418    0.95922    0.22464   1.00
C4       0.24959    0.97900    0.24992   1.00
O3       0.29551    1.02167    0.19537   1.00
C5       0.29669    0.88720    0.32941   1.00
H2       0.29014    0.91391    0.34690   1.00
C5       0.33231    0.86674    0.34648   1.00
H2       0.27103    0.86726    0.33084   1.00
H2       0.35419    0.88932    0.35470   1.00
H2       0.34571    0.84907    0.32271   1.00
C5       0.32238    0.84082    0.38180   1.00
H2       0.30629    0.85824    0.40391   1.00
C5       0.35977    0.82453    0.40063   1.00
H2       0.30438    0.81507    0.37298   1.00
C5       0.35463    0.99017    0.17836   1.00
H2       0.36359    1.01215    0.15615   1.00
H2       0.33432    0.96952    0.16359   1.00
C5       0.39033    0.96800    0.19424   1.00
C5       0.41499    0.95225    0.16016   1.00
H2       0.10609    1.19286    0.37045   1.00
C5       0.05262    1.18912    0.33514   1.00
H2       0.08433    1.14323    0.36689   1.00
C5       0.17667    1.03337    0.03044   1.00
H2       0.13351    1.00551    0.06893   1.00
H2       0.15302    1.05293    0.08682   1.00
C5       0.34953    0.80497    0.43976   1.00
H2       0.37356    0.80211    0.38031   1.00
H2       0.38124    0.84937    0.40594   1.00
H2       0.39531    0.93602    0.13882   1.00
H2       0.42976    0.97761    0.14452   1.00
C5       0.44626    0.92417    0.17602   1.00
H2       0.05729    1.20116    0.30450   1.00
H2       0.02901    1.16571    0.33437   1.00
H2       0.04315    1.21374    0.35540   1.00
H2       0.20599    1.01820    0.02640   1.00
H2       0.15522    1.02229    0.00757   1.00
H2       0.18061    1.06621    0.02698   1.00
H2       0.32057    0.78889    0.43687   1.00
H2       0.37345    0.78336    0.44794   1.00
H2       0.34701    0.82819    0.46343   1.00
H2       0.43448    0.89307    0.17558   1.00
H2       0.47347    0.92598    0.15699   1.00
H2       0.45398    0.93266    0.20723   1.00
C5       -0.13218   0.82715    0.35061   1.00
H2       -0.14745   0.84240    0.32645   1.00
H2       -0.11090   0.84850    0.36252   1.00
C5       -0.16194   0.81544    0.38216   1.00
C5       -0.17123   0.85022    0.40903   1.00
H2       -0.15015   0.79105    0.40008   1.00
O3       0.02000    0.70199    0.30206   1.00
C4       -0.02100   0.75008    0.24959   1.00
C3c      -0.04243   0.77621    0.27276   1.00
H1       -0.02725   0.79697    0.29102   1.00
C3d      -0.04135   0.72364    0.22558   1.00
C3       -0.08354   0.77567    0.27323   1.00
O2       -0.10248   0.80513    0.29287   1.00
C3       -0.08227   0.72252    0.22654   1.00
H1       -0.09657   0.70081    0.20867   1.00
C2       -0.10439   0.74845    0.25012   1.00
C5       0.02121    0.66264    0.28991   1.00
H2       0.05162    0.65121    0.28824   1.00
H2       0.00734    0.65896    0.26068   1.00
C5       -0.00129   0.63860    0.31982   1.00
H2       -0.03137   0.65071    0.32230   1.00
H2       0.01302    0.64219    0.34881   1.00
C5       -0.00262   0.59527    0.30802   1.00
H2       0.02732    0.58306    0.30523   1.00
H2       -0.01811   0.59151    0.27973   1.00
C5       -0.02445   0.57149    0.33927   1.00
C5       -0.01105   0.71064    0.16776   1.00
C5       -0.11070   0.79319    0.33150   1.00
H2       0.00912    0.73587    0.17088   1.00
H2       -0.03712   0.72016    0.15074   1.00
H2       -0.08300   0.78695    0.34744   1.00
H2       -0.12895   0.76614    0.33261   1.00
H2       -0.19030   0.80629    0.36886   1.00
H2       0.05753    0.71235    0.11871   1.00
H2       0.01237    0.71201    0.09088   1.00
C2       0.10395    0.74733    0.25023   1.00
C3       0.08403    0.77320    0.22511   1.00
O2       0.10326    0.79041    0.19421   1.00
C3       0.08174    0.72412    0.27617   1.00
H1       0.09615    0.70477    0.29647   1.00
C3a      0.04287    0.77456    0.22570   1.00
H1       0.02798    0.79287    0.20475   1.00
C3b      0.04078    0.72464    0.27582   1.00
C4       0.02100    0.74992    0.25041   1.00
O3       -0.02167   0.69537    0.20449   1.00
C5       0.11280    0.82941    0.20331   1.00
H2       0.08609    0.84690    0.20986   1.00
C5       0.13326    0.84648    0.16769   1.00
H2       0.13274    0.83084    0.22897   1.00
H2       0.11068    0.85470    0.14581   1.00
H2       0.15093    0.82271    0.15429   1.00
C5       0.15918    0.88180    0.17762   1.00
H2       0.14176    0.90391    0.19371   1.00
C5       0.17547    0.90063    0.14023   1.00
H2       0.18493    0.87298    0.19562   1.00
C5       0.00983    0.67836    0.14537   1.00
H2       -0.01215   0.65615    0.13641   1.00
H2       0.03048    0.66359    0.16568   1.00
C5       0.03200    0.69424    0.10967   1.00
C5       0.04775    0.66016    0.08501   1.00
H2       -0.19286   0.87045    0.39391   1.00
C5       -0.18912   0.83514    0.44738   1.00
H2       -0.14323   0.86689    0.41567   1.00
C5       -0.03337   0.53044    0.32333   1.00
H2       -0.00551   0.56893    0.36649   1.00
H2       -0.05293   0.58682    0.34698   1.00
C5       0.19503    0.93976    0.15047   1.00
H2       0.19789    0.88031    0.12644   1.00
H2       0.15063    0.90594    0.11876   1.00
H2       0.06398    0.63882    0.10469   1.00
H2       0.02239    0.64452    0.07024   1.00
C5       0.07583    0.67602    0.05374   1.00
H2       -0.20116   0.80450    0.44271   1.00
H2       -0.16571   0.83437    0.47099   1.00
H2       -0.21374   0.85540    0.45685   1.00
H2       -0.01820   0.52640    0.29401   1.00
H2       -0.02229   0.50757    0.34478   1.00
H2       -0.06621   0.52698    0.31939   1.00
H2       0.21111    0.93687    0.17943   1.00
H2       0.21664    0.94794    0.12655   1.00
H2       0.17181    0.96343    0.15299   1.00
H2       0.10693    0.67558    0.06552   1.00
H2       0.07402    0.65699    0.02653   1.00
H2       0.06734    0.70723    0.04602   1.00
C5       0.63218    0.82715    0.14939   1.00
H2       0.64745    0.84240    0.17355   1.00
H2       0.61090    0.84850    0.13748   1.00
C5       0.66194    0.81544    0.11784   1.00
C5       0.67123    0.85022    0.09097   1.00
H2       0.65015    0.79105    0.09992   1.00
O3       0.48000    0.70199    0.19794   1.00
C4       0.52100    0.75008    0.25041   1.00
C3c      0.54243    0.77621    0.22724   1.00
H1       0.52725    0.79697    0.20898   1.00
C3d      0.54135    0.72364    0.27442   1.00
C3       0.58354    0.77567    0.22677   1.00
O2       0.60248    0.80513    0.20713   1.00
C3       0.58227    0.72252    0.27346   1.00
H1       0.59657    0.70081    0.29133   1.00
C2       0.60439    0.74845    0.24988   1.00
C5       0.47879    0.66264    0.21009   1.00
H2       0.44838    0.65121    0.21176   1.00
H2       0.49266    0.65896    0.23932   1.00
C5       0.50129    0.63860    0.18018   1.00
H2       0.53137    0.65071    0.17770   1.00
H2       0.48698    0.64219    0.15119   1.00
C5       0.50262    0.59527    0.19198   1.00
H2       0.47268    0.58306    0.19477   1.00
H2       0.51811    0.59151    0.22027   1.00
C5       0.52445    0.57149    0.16073   1.00
C5       0.51105    0.71064    0.33224   1.00
C5       0.61070    0.79319    0.16850   1.00
H2       0.49088    0.73587    0.32912   1.00
H2       0.53712    0.72016    0.34926   1.00
H2       0.58300    0.78695    0.15256   1.00
H2       0.62895    0.76614    0.16739   1.00
H2       0.69030    0.80629    0.13114   1.00
H2       0.44247    0.71235    0.38129   1.00
H2       0.48763    0.71201    0.40912   1.00
C2       0.39605    0.74733    0.24977   1.00
C3       0.41597    0.77320    0.27489   1.00
O2       0.39674    0.79041    0.30579   1.00
C3       0.41826    0.72412    0.22383   1.00
H1       0.40385    0.70477    0.20353   1.00
C3a      0.45713    0.77456    0.27430   1.00
H1       0.47202    0.79287    0.29525   1.00
C3b      0.45922    0.72464    0.22418   1.00
C4       0.47900    0.74992    0.24959   1.00
O3       0.52167    0.69537    0.29551   1.00
C5       0.38720    0.82941    0.29669   1.00
H2       0.41391    0.84690    0.29014   1.00
C5       0.36674    0.84648    0.33231   1.00
H2       0.36726    0.83084    0.27103   1.00
H2       0.38932    0.85470    0.35419   1.00
H2       0.34907    0.82271    0.34571   1.00
C5       0.34082    0.88180    0.32238   1.00
H2       0.35824    0.90391    0.30629   1.00
C5       0.32453    0.90063    0.35977   1.00
H2       0.31507    0.87298    0.30438   1.00
C5       0.49017    0.67836    0.35463   1.00
H2       0.51215    0.65615    0.36359   1.00
H2       0.46952    0.66359    0.33432   1.00
C5       0.46800    0.69424    0.39033   1.00
C5       0.45225    0.66016    0.41499   1.00
H2       0.69286    0.87045    0.10609   1.00
C5       0.68912    0.83514    0.05262   1.00
H2       0.64323    0.86689    0.08433   1.00
C5       0.53337    0.53044    0.17667   1.00
H2       0.50551    0.56893    0.13351   1.00
H2       0.55293    0.58682    0.15302   1.00
C5       0.30497    0.93976    0.34953   1.00
H2       0.30211    0.88031    0.37356   1.00
H2       0.34937    0.90594    0.38124   1.00
H2       0.43602    0.63882    0.39531   1.00
H2       0.47761    0.64452    0.42976   1.00
C5       0.42417    0.67602    0.44626   1.00
H2       0.70116    0.80450    0.05729   1.00
H2       0.66571    0.83437    0.02901   1.00
H2       0.71374    0.85540    0.04315   1.00
H2       0.51820    0.52640    0.20599   1.00
H2       0.52229    0.50757    0.15522   1.00
H2       0.56621    0.52698    0.18061   1.00
H2       0.28889    0.93687    0.32057   1.00
H2       0.28336    0.94794    0.37345   1.00
H2       0.32819    0.96343    0.34701   1.00
H2       0.39307    0.67558    0.43448   1.00
H2       0.42598    0.65699    0.47347   1.00
H2       0.43266    0.70723    0.45398   1.00
C5       0.35061    0.36782    0.32715   1.00
H2       0.32645    0.35255    0.34240   1.00
H2       0.36252    0.38910    0.34850   1.00
C5       0.38216    0.33806    0.31544   1.00
C5       0.40903    0.32877    0.35022   1.00
H2       0.40008    0.34985    0.29105   1.00
O3       0.30206    0.52000    0.20199   1.00
C4       0.24959    0.47900    0.25008   1.00
C3c      0.27276    0.45757    0.27621   1.00
H1       0.29102    0.47275    0.29697   1.00
C3d      0.22558    0.45865    0.22364   1.00
C3       0.27323    0.41646    0.27567   1.00
O2       0.29287    0.39752    0.30513   1.00
C3       0.22654    0.41773    0.22252   1.00
H1       0.20867    0.40343    0.20081   1.00
C2       0.25012    0.39561    0.24845   1.00
C5       0.28991    0.52121    0.16264   1.00
H2       0.28824    0.55162    0.15121   1.00
H2       0.26068    0.50734    0.15896   1.00
C5       0.31982    0.49871    0.13860   1.00
H2       0.32230    0.46863    0.15071   1.00
H2       0.34881    0.51302    0.14219   1.00
C5       0.30802    0.49738    0.09527   1.00
H2       0.30523    0.52732    0.08306   1.00
H2       0.27973    0.48189    0.09151   1.00
C5       0.33927    0.47555    0.07149   1.00
C5       0.16776    0.48895    0.21064   1.00
C5       0.33150    0.38930    0.29319   1.00
H2       0.17088    0.50912    0.23587   1.00
H2       0.15074    0.46288    0.22016   1.00
H2       0.34744    0.41700    0.28695   1.00
H2       0.33261    0.37105    0.26614   1.00
H2       0.36886    0.30970    0.30629   1.00
H2       0.11871    0.55753    0.21235   1.00
H2       0.09088    0.51237    0.21201   1.00
C2       0.25023    0.60395    0.24733   1.00
C3       0.22511    0.58403    0.27320   1.00
O2       0.19421    0.60326    0.29041   1.00
C3       0.27617    0.58174    0.22412   1.00
H1       0.29647    0.59615    0.20477   1.00
C3a      0.22570    0.54287    0.27456   1.00
H1       0.20475    0.52798    0.29287   1.00
C3b      0.27582    0.54078    0.22464   1.00
C4       0.25041    0.52100    0.24992   1.00
O3       0.20449    0.47833    0.19537   1.00
C5       0.20331    0.61280    0.32941   1.00
H2       0.20986    0.58609    0.34690   1.00
C5       0.16769    0.63326    0.34648   1.00
H2       0.22897    0.63274    0.33084   1.00
H2       0.14581    0.61068    0.35470   1.00
H2       0.15429    0.65093    0.32271   1.00
C5       0.17762    0.65918    0.38180   1.00
H2       0.19371    0.64176    0.40391   1.00
C5       0.14023    0.67547    0.40063   1.00
H2       0.19562    0.68493    0.37298   1.00
C5       0.14537    0.50983    0.17836   1.00
H2       0.13641    0.48785    0.15615   1.00
H2       0.16568    0.53048    0.16359   1.00
C5       0.10967    0.53200    0.19424   1.00
C5       0.08501    0.54775    0.16016   1.00
H2       0.39391    0.30714    0.37045   1.00
C5       0.44738    0.31088    0.33514   1.00
H2       0.41567    0.35677    0.36689   1.00
C5       0.32333    0.46663    0.03044   1.00
H2       0.36649    0.49449    0.06893   1.00
H2       0.34698    0.44707    0.08682   1.00
C5       0.15047    0.69503    0.43976   1.00
H2       0.12644    0.69789    0.38031   1.00
H2       0.11876    0.65063    0.40594   1.00
H2       0.10469    0.56398    0.13882   1.00
H2       0.07024    0.52239    0.14452   1.00
C5       0.05374    0.57583    0.17602   1.00
H2       0.44271    0.29884    0.30450   1.00
H2       0.47099    0.33429    0.33437   1.00
H2       0.45685    0.28626    0.35540   1.00
H2       0.29401    0.48180    0.02640   1.00
H2       0.34478    0.47771    0.00757   1.00
H2       0.31939    0.43379    0.02698   1.00
H2       0.17943    0.71111    0.43687   1.00
H2       0.12655    0.71664    0.44794   1.00
H2       0.15299    0.67181    0.46343   1.00
H2       0.06552    0.60693    0.17558   1.00
H2       0.02653    0.57402    0.15699   1.00
H2       0.04602    0.56734    0.20723   1.00
C5       0.32715    0.85061    -0.13218   1.00
H2       0.34240    0.82645    -0.14745   1.00
H2       0.34850    0.86252    -0.11090   1.00
C5       0.31544    0.88216    -0.16194   1.00
C5       0.35022    0.90903    -0.17123   1.00
H2       0.29105    0.90008    -0.15015   1.00
O3       0.20199    0.80206    0.02000   1.00
C4       0.25008    0.74959    -0.02100   1.00
C3c      0.27621    0.77276    -0.04243   1.00
H1       0.29697    0.79102    -0.02725   1.00
C3d      0.22364    0.72558    -0.04135   1.00
C3       0.27567    0.77323    -0.08354   1.00
O2       0.30513    0.79287    -0.10248   1.00
C3       0.22252    0.72654    -0.08227   1.00
H1       0.20081    0.70867    -0.09657   1.00
C2       0.24845    0.75012    -0.10439   1.00
C5       0.16264    0.78991    0.02121   1.00
H2       0.15121    0.78824    0.05162   1.00
H2       0.15896    0.76068    0.00734   1.00
C5       0.13860    0.81982    -0.00129   1.00
H2       0.15071    0.82230    -0.03137   1.00
H2       0.14219    0.84881    0.01302   1.00
C5       0.09527    0.80802    -0.00262   1.00
H2       0.08306    0.80523    0.02732   1.00
H2       0.09151    0.77973    -0.01811   1.00
C5       0.07149    0.83927    -0.02445   1.00
C5       0.21064    0.66776    -0.01105   1.00
C5       0.29319    0.83150    -0.11070   1.00
H2       0.23587    0.67088    0.00912   1.00
H2       0.22016    0.65074    -0.03712   1.00
H2       0.28695    0.84744    -0.08300   1.00
H2       0.26614    0.83261    -0.12895   1.00
H2       0.30629    0.86886    -0.19030   1.00
H2       0.21235    0.61871    0.05753   1.00
H2       0.21201    0.59088    0.01237   1.00
C2       0.24733    0.75023    0.10395   1.00
C3       0.27320    0.72511    0.08403   1.00
O2       0.29041    0.69421    0.10326   1.00
C3       0.22412    0.77617    0.08174   1.00
H1       0.20477    0.79647    0.09615   1.00
C3a      0.27456    0.72570    0.04287   1.00
H1       0.29287    0.70475    0.02798   1.00
C3b      0.22464    0.77582    0.04078   1.00
C4       0.24992    0.75041    0.02100   1.00
O3       0.19537    0.70449    -0.02167   1.00
C5       0.32941    0.70331    0.11280   1.00
H2       0.34690    0.70986    0.08609   1.00
C5       0.34648    0.66769    0.13326   1.00
H2       0.33084    0.72897    0.13274   1.00
H2       0.35470    0.64581    0.11068   1.00
H2       0.32271    0.65429    0.15093   1.00
C5       0.38180    0.67762    0.15918   1.00
H2       0.40391    0.69371    0.14176   1.00
C5       0.40063    0.64023    0.17547   1.00
H2       0.37298    0.69562    0.18493   1.00
C5       0.17836    0.64537    0.00983   1.00
H2       0.15615    0.63641    -0.01215   1.00
H2       0.16359    0.66568    0.03048   1.00
C5       0.19424    0.60967    0.03200   1.00
C5       0.16016    0.58501    0.04775   1.00
H2       0.37045    0.89391    -0.19286   1.00
C5       0.33514    0.94738    -0.18912   1.00
H2       0.36689    0.91567    -0.14323   1.00
C5       0.03044    0.82333    -0.03337   1.00
H2       0.06893    0.86649    -0.00551   1.00
H2       0.08682    0.84698    -0.05293   1.00
C5       0.43976    0.65047    0.19503   1.00
H2       0.38031    0.62644    0.19789   1.00
H2       0.40594    0.61876    0.15063   1.00
H2       0.13882    0.60469    0.06398   1.00
H2       0.14452    0.57024    0.02239   1.00
C5       0.17602    0.55374    0.07583   1.00
H2       0.30450    0.94271    -0.20116   1.00
H2       0.33437    0.97099    -0.16571   1.00
H2       0.35540    0.95685    -0.21374   1.00
H2       0.02640    0.79401    -0.01820   1.00
H2       0.00757    0.84478    -0.02229   1.00
H2       0.02698    0.81939    -0.06621   1.00
H2       0.43687    0.67943    0.21111   1.00
H2       0.44794    0.62655    0.21664   1.00
H2       0.46343    0.65299    0.17181   1.00
H2       0.17558    0.56552    0.10693   1.00
H2       0.15699    0.52653    0.07402   1.00
H2       0.20723    0.54602    0.06734   1.00
C5       0.82715    0.14939    0.63218   1.00
H2       0.84240    0.17355    0.64745   1.00
H2       0.84850    0.13748    0.61090   1.00
C5       0.81544    0.11784    0.66194   1.00
C5       0.85022    0.09097    0.67123   1.00
H2       0.79105    0.09992    0.65015   1.00
O3       0.70199    0.19794    0.48000   1.00
C4       0.75008    0.25041    0.52100   1.00
C3c      0.77621    0.22724    0.54243   1.00
H1       0.79697    0.20898    0.52725   1.00
C3d      0.72364    0.27442    0.54135   1.00
C3       0.77567    0.22677    0.58354   1.00
O2       0.80513    0.20713    0.60248   1.00
C3       0.72252    0.27346    0.58227   1.00
H1       0.70081    0.29133    0.59657   1.00
C2       0.74845    0.24988    0.60439   1.00
C5       0.66264    0.21009    0.47879   1.00
H2       0.65121    0.21176    0.44838   1.00
H2       0.65896    0.23932    0.49266   1.00
C5       0.63860    0.18018    0.50129   1.00
H2       0.65071    0.17770    0.53137   1.00
H2       0.64219    0.15119    0.48698   1.00
C5       0.59527    0.19198    0.50262   1.00
H2       0.58306    0.19477    0.47268   1.00
H2       0.59151    0.22027    0.51811   1.00
C5       0.57149    0.16073    0.52445   1.00
C5       0.71064    0.33224    0.51105   1.00
C5       0.79319    0.16850    0.61070   1.00
H2       0.73587    0.32912    0.49088   1.00
H2       0.72016    0.34926    0.53712   1.00
H2       0.78695    0.15256    0.58300   1.00
H2       0.76614    0.16739    0.62895   1.00
H2       0.80629    0.13114    0.69030   1.00
H2       0.71235    0.38129    0.44247   1.00
H2       0.71201    0.40912    0.48763   1.00
C2       0.74733    0.24977    0.39605   1.00
C3       0.77320    0.27489    0.41597   1.00
O2       0.79041    0.30579    0.39674   1.00
C3       0.72412    0.22383    0.41826   1.00
H1       0.70477    0.20353    0.40385   1.00
C3a      0.77456    0.27430    0.45713   1.00
H1       0.79287    0.29525    0.47202   1.00
C3b      0.72464    0.22418    0.45922   1.00
C4       0.74992    0.24959    0.47900   1.00
O3       0.69537    0.29551    0.52167   1.00
C5       0.82941    0.29669    0.38720   1.00
H2       0.84690    0.29014    0.41391   1.00
C5       0.84648    0.33231    0.36674   1.00
H2       0.83084    0.27103    0.36726   1.00
H2       0.85470    0.35419    0.38932   1.00
H2       0.82271    0.34571    0.34907   1.00
C5       0.88180    0.32238    0.34082   1.00
H2       0.90391    0.30629    0.35824   1.00
C5       0.90063    0.35977    0.32453   1.00
H2       0.87298    0.30438    0.31507   1.00
C5       0.67836    0.35463    0.49017   1.00
H2       0.65615    0.36359    0.51215   1.00
H2       0.66359    0.33432    0.46952   1.00
C5       0.69424    0.39033    0.46800   1.00
C5       0.66016    0.41499    0.45225   1.00
H2       0.87045    0.10609    0.69286   1.00
C5       0.83514    0.05262    0.68912   1.00
H2       0.86689    0.08433    0.64323   1.00
C5       0.53044    0.17667    0.53337   1.00
H2       0.56893    0.13351    0.50551   1.00
H2       0.58682    0.15302    0.55293   1.00
C5       0.93976    0.34953    0.30497   1.00
H2       0.88031    0.37356    0.30211   1.00
H2       0.90594    0.38124    0.34937   1.00
H2       0.63882    0.39531    0.43602   1.00
H2       0.64452    0.42976    0.47761   1.00
C5       0.67602    0.44626    0.42417   1.00
H2       0.80450    0.05729    0.70116   1.00
H2       0.83437    0.02901    0.66571   1.00
H2       0.85540    0.04315    0.71374   1.00
H2       0.52640    0.20599    0.51820   1.00
H2       0.50757    0.15522    0.52229   1.00
H2       0.52698    0.18061    0.56621   1.00
H2       0.93687    0.32057    0.28889   1.00
H2       0.94794    0.37345    0.28336   1.00
H2       0.96343    0.34701    0.32819   1.00
H2       0.67558    0.43448    0.39307   1.00
H2       0.65699    0.47347    0.42598   1.00
H2       0.70723    0.45398    0.43266   1.00
C5       0.64939    0.63218    0.32715   1.00
H2       0.67355    0.64745    0.34240   1.00
H2       0.63748    0.61090    0.34850   1.00
C5       0.61784    0.66194    0.31544   1.00
C5       0.59097    0.67123    0.35022   1.00
H2       0.59992    0.65015    0.29105   1.00
O3       0.69794    0.48000    0.20199   1.00
C4       0.75041    0.52100    0.25008   1.00
C3c      0.72724    0.54243    0.27621   1.00
H1       0.70898    0.52725    0.29697   1.00
C3d      0.77442    0.54135    0.22364   1.00
C3       0.72677    0.58354    0.27567   1.00
O2       0.70713    0.60248    0.30513   1.00
C3       0.77346    0.58227    0.22252   1.00
H1       0.79133    0.59657    0.20081   1.00
C2       0.74988    0.60439    0.24845   1.00
C5       0.71009    0.47879    0.16264   1.00
H2       0.71176    0.44838    0.15121   1.00
H2       0.73932    0.49266    0.15896   1.00
C5       0.68018    0.50129    0.13860   1.00
H2       0.67770    0.53137    0.15071   1.00
H2       0.65119    0.48698    0.14219   1.00
C5       0.69198    0.50262    0.09527   1.00
H2       0.69477    0.47268    0.08306   1.00
H2       0.72027    0.51811    0.09151   1.00
C5       0.66073    0.52445    0.07149   1.00
C5       0.83224    0.51105    0.21064   1.00
C5       0.66850    0.61070    0.29319   1.00
H2       0.82912    0.49088    0.23587   1.00
H2       0.84926    0.53712    0.22016   1.00
H2       0.65256    0.58300    0.28695   1.00
H2       0.66739    0.62895    0.26614   1.00
H2       0.63114    0.69030    0.30629   1.00
H2       0.88129    0.44247    0.21235   1.00
H2       0.90912    0.48763    0.21201   1.00
C2       0.74977    0.39605    0.24733   1.00
C3       0.77489    0.41597    0.27320   1.00
O2       0.80579    0.39674    0.29041   1.00
C3       0.72383    0.41826    0.22412   1.00
H1       0.70353    0.40385    0.20477   1.00
C3a      0.77430    0.45713    0.27456   1.00
H1       0.79525    0.47202    0.29287   1.00
C3b      0.72418    0.45922    0.22464   1.00
C4       0.74959    0.47900    0.24992   1.00
O3       0.79551    0.52167    0.19537   1.00
C5       0.79669    0.38720    0.32941   1.00
H2       0.79014    0.41391    0.34690   1.00
C5       0.83231    0.36674    0.34648   1.00
H2       0.77103    0.36726    0.33084   1.00
H2       0.85419    0.38932    0.35470   1.00
H2       0.84571    0.34907    0.32271   1.00
C5       0.82238    0.34082    0.38180   1.00
H2       0.80629    0.35824    0.40391   1.00
C5       0.85977    0.32453    0.40063   1.00
H2       0.80438    0.31507    0.37298   1.00
C5       0.85463    0.49017    0.17836   1.00
H2       0.86359    0.51215    0.15615   1.00
H2       0.83432    0.46952    0.16359   1.00
C5       0.89033    0.46800    0.19424   1.00
C5       0.91499    0.45225    0.16016   1.00
H2       0.60609    0.69286    0.37045   1.00
C5       0.55262    0.68912    0.33514   1.00
H2       0.58433    0.64323    0.36689   1.00
C5       0.67667    0.53337    0.03044   1.00
H2       0.63351    0.50551    0.06893   1.00
H2       0.65302    0.55293    0.08682   1.00
C5       0.84953    0.30497    0.43976   1.00
H2       0.87356    0.30211    0.38031   1.00
H2       0.88124    0.34937    0.40594   1.00
H2       0.89531    0.43602    0.13882   1.00
H2       0.92976    0.47761    0.14452   1.00
C5       0.94626    0.42417    0.17602   1.00
H2       0.55729    0.70116    0.30450   1.00
H2       0.52901    0.66571    0.33437   1.00
H2       0.54315    0.71374    0.35540   1.00
H2       0.70599    0.51820    0.02640   1.00
H2       0.65522    0.52229    0.00757   1.00
H2       0.68061    0.56621    0.02698   1.00
H2       0.82057    0.28889    0.43687   1.00
H2       0.87345    0.28336    0.44794   1.00
H2       0.84701    0.32819    0.46343   1.00
H2       0.93448    0.39307    0.17558   1.00
H2       0.97347    0.42598    0.15699   1.00
H2       0.95398    0.43266    0.20723   1.00
C5       0.36782    0.32715    0.35061   1.00
H2       0.35255    0.34240    0.32645   1.00
H2       0.38910    0.34850    0.36252   1.00
C5       0.33806    0.31544    0.38216   1.00
C5       0.32877    0.35022    0.40903   1.00
H2       0.34985    0.29105    0.40008   1.00
O3       0.52000    0.20199    0.30206   1.00
C4       0.47900    0.25008    0.24959   1.00
C3c      0.45757    0.27621    0.27276   1.00
H1       0.47275    0.29697    0.29102   1.00
C3d      0.45865    0.22364    0.22558   1.00
C3       0.41646    0.27567    0.27323   1.00
O2       0.39752    0.30513    0.29287   1.00
C3       0.41773    0.22252    0.22654   1.00
H1       0.40343    0.20081    0.20867   1.00
C2       0.39561    0.24845    0.25012   1.00
C5       0.52121    0.16264    0.28991   1.00
H2       0.55162    0.15121    0.28824   1.00
H2       0.50734    0.15896    0.26068   1.00
C5       0.49871    0.13860    0.31982   1.00
H2       0.46863    0.15071    0.32230   1.00
H2       0.51302    0.14219    0.34881   1.00
C5       0.49738    0.09527    0.30802   1.00
H2       0.52732    0.08306    0.30523   1.00
H2       0.48189    0.09151    0.27973   1.00
C5       0.47555    0.07149    0.33927   1.00
C5       0.48895    0.21064    0.16776   1.00
C5       0.38930    0.29319    0.33150   1.00
H2       0.50912    0.23587    0.17088   1.00
H2       0.46288    0.22016    0.15074   1.00
H2       0.41700    0.28695    0.34744   1.00
H2       0.37105    0.26614    0.33261   1.00
H2       0.30970    0.30629    0.36886   1.00
H2       0.55753    0.21235    0.11871   1.00
H2       0.51237    0.21201    0.09088   1.00
C2       0.60395    0.24733    0.25023   1.00
C3       0.58403    0.27320    0.22511   1.00
O2       0.60326    0.29041    0.19421   1.00
C3       0.58174    0.22412    0.27617   1.00
H1       0.59615    0.20477    0.29647   1.00
C3a      0.54287    0.27456    0.22570   1.00
H1       0.52798    0.29287    0.20475   1.00
C3b      0.54078    0.22464    0.27582   1.00
C4       0.52100    0.24992    0.25041   1.00
O3       0.47833    0.19537    0.20449   1.00
C5       0.61280    0.32941    0.20331   1.00
H2       0.58609    0.34690    0.20986   1.00
C5       0.63326    0.34648    0.16769   1.00
H2       0.63274    0.33084    0.22897   1.00
H2       0.61068    0.35470    0.14581   1.00
H2       0.65093    0.32271    0.15429   1.00
C5       0.65918    0.38180    0.17762   1.00
H2       0.64176    0.40391    0.19371   1.00
C5       0.67547    0.40063    0.14023   1.00
H2       0.68493    0.37298    0.19562   1.00
C5       0.50983    0.17836    0.14537   1.00
H2       0.48785    0.15615    0.13641   1.00
H2       0.53048    0.16359    0.16568   1.00
C5       0.53200    0.19424    0.10967   1.00
C5       0.54775    0.16016    0.08501   1.00
H2       0.30714    0.37045    0.39391   1.00
C5       0.31088    0.33514    0.44738   1.00
H2       0.35677    0.36689    0.41567   1.00
C5       0.46663    0.03044    0.32333   1.00
H2       0.49449    0.06893    0.36649   1.00
H2       0.44707    0.08682    0.34698   1.00
C5       0.69503    0.43976    0.15047   1.00
H2       0.69789    0.38031    0.12644   1.00
H2       0.65063    0.40594    0.11876   1.00
H2       0.56398    0.13882    0.10469   1.00
H2       0.52239    0.14452    0.07024   1.00
C5       0.57583    0.17602    0.05374   1.00
H2       0.29884    0.30450    0.44271   1.00
H2       0.33429    0.33437    0.47099   1.00
H2       0.28626    0.35540    0.45685   1.00
H2       0.48180    0.02640    0.29401   1.00
H2       0.47771    0.00757    0.34478   1.00
H2       0.43379    0.02698    0.31939   1.00
H2       0.71111    0.43687    0.17943   1.00
H2       0.71664    0.44794    0.12655   1.00
H2       0.67181    0.46343    0.15299   1.00
H2       0.60693    0.17558    0.06552   1.00
H2       0.57402    0.15699    0.02653   1.00
H2       0.56734    0.20723    0.04602   1.00
C5       1.13218    0.32715    0.14939   1.00
H2       1.14745    0.34240    0.17355   1.00
H2       1.11090    0.34850    0.13748   1.00
C5       1.16194    0.31544    0.11784   1.00
C5       1.17123    0.35022    0.09097   1.00
H2       1.15015    0.29105    0.09992   1.00
O3       0.98000    0.20199    0.19794   1.00
C4       1.02100    0.25008    0.25041   1.00
C3c      1.04243    0.27621    0.22724   1.00
H1       1.02725    0.29697    0.20898   1.00
C3d      1.04135    0.22364    0.27442   1.00
C3       1.08354    0.27567    0.22677   1.00
O2       1.10248    0.30513    0.20713   1.00
C3       1.08227    0.22252    0.27346   1.00
H1       1.09657    0.20081    0.29133   1.00
C2       1.10439    0.24845    0.24988   1.00
C5       0.97879    0.16264    0.21009   1.00
H2       0.94838    0.15121    0.21176   1.00
H2       0.99266    0.15896    0.23932   1.00
C5       1.00129    0.13860    0.18018   1.00
H2       1.03137    0.15071    0.17770   1.00
H2       0.98698    0.14219    0.15119   1.00
C5       1.00262    0.09527    0.19198   1.00
H2       0.97268    0.08306    0.19477   1.00
H2       1.01811    0.09151    0.22027   1.00
C5       1.02445    0.07149    0.16073   1.00
C5       1.01105    0.21064    0.33224   1.00
C5       1.11070    0.29319    0.16850   1.00
H2       0.99088    0.23587    0.32912   1.00
H2       1.03712    0.22016    0.34926   1.00
H2       1.08300    0.28695    0.15256   1.00
H2       1.12895    0.26614    0.16739   1.00
H2       1.19030    0.30629    0.13114   1.00
H2       0.94247    0.21235    0.38129   1.00
H2       0.98763    0.21201    0.40912   1.00
C2       0.89605    0.24733    0.24977   1.00
C3       0.91597    0.27320    0.27489   1.00
O2       0.89674    0.29041    0.30579   1.00
C3       0.91826    0.22412    0.22383   1.00
H1       0.90385    0.20477    0.20353   1.00
C3a      0.95713    0.27456    0.27430   1.00
H1       0.97202    0.29287    0.29525   1.00
C3b      0.95922    0.22464    0.22418   1.00
C4       0.97900    0.24992    0.24959   1.00
O3       1.02167    0.19537    0.29551   1.00
C5       0.88720    0.32941    0.29669   1.00
H2       0.91391    0.34690    0.29014   1.00
C5       0.86674    0.34648    0.33231   1.00
H2       0.86726    0.33084    0.27103   1.00
H2       0.88932    0.35470    0.35419   1.00
H2       0.84907    0.32271    0.34571   1.00
C5       0.84082    0.38180    0.32238   1.00
H2       0.85824    0.40391    0.30629   1.00
C5       0.82453    0.40063    0.35977   1.00
H2       0.81507    0.37298    0.30438   1.00
C5       0.99017    0.17836    0.35463   1.00
H2       1.01215    0.15615    0.36359   1.00
H2       0.96952    0.16359    0.33432   1.00
C5       0.96800    0.19424    0.39033   1.00
C5       0.95225    0.16016    0.41499   1.00
H2       1.19286    0.37045    0.10609   1.00
C5       1.18912    0.33514    0.05262   1.00
H2       1.14323    0.36689    0.08433   1.00
C5       1.03337    0.03044    0.17667   1.00
H2       1.00551    0.06893    0.13351   1.00
H2       1.05293    0.08682    0.15302   1.00
C5       0.80497    0.43976    0.34953   1.00
H2       0.80211    0.38031    0.37356   1.00
H2       0.84937    0.40594    0.38124   1.00
H2       0.93602    0.13882    0.39531   1.00
H2       0.97761    0.14452    0.42976   1.00
C5       0.92417    0.17602    0.44626   1.00
H2       1.20116    0.30450    0.05729   1.00
H2       1.16571    0.33437    0.02901   1.00
H2       1.21374    0.35540    0.04315   1.00
H2       1.01820    0.02640    0.20599   1.00
H2       1.02229    0.00757    0.15522   1.00
H2       1.06621    0.02698    0.18061   1.00
H2       0.78889    0.43687    0.32057   1.00
H2       0.78336    0.44794    0.37345   1.00
H2       0.82819    0.46343    0.34701   1.00
H2       0.89307    0.17558    0.43448   1.00
H2       0.92598    0.15699    0.47347   1.00
H2       0.93266    0.20723    0.45398   1.00
C5       0.85061    -0.13218   0.32715   1.00
H2       0.82645    -0.14745   0.34240   1.00
H2       0.86252    -0.11090   0.34850   1.00
C5       0.88216    -0.16194   0.31544   1.00
C5       0.90903    -0.17123   0.35022   1.00
H2       0.90008    -0.15015   0.29105   1.00
O3       0.80206    0.02000    0.20199   1.00
C4       0.74959    -0.02100   0.25008   1.00
C3c      0.77276    -0.04243   0.27621   1.00
H1       0.79102    -0.02725   0.29697   1.00
C3d      0.72558    -0.04135   0.22364   1.00
C3       0.77323    -0.08354   0.27567   1.00
O2       0.79287    -0.10248   0.30513   1.00
C3       0.72654    -0.08227   0.22252   1.00
H1       0.70867    -0.09657   0.20081   1.00
C2       0.75012    -0.10439   0.24845   1.00
C5       0.78991    0.02121    0.16264   1.00
H2       0.78824    0.05162    0.15121   1.00
H2       0.76068    0.00734    0.15896   1.00
C5       0.81982    -0.00129   0.13860   1.00
H2       0.82230    -0.03137   0.15071   1.00
H2       0.84881    0.01302    0.14219   1.00
C5       0.80802    -0.00262   0.09527   1.00
H2       0.80523    0.02732    0.08306   1.00
H2       0.77973    -0.01811   0.09151   1.00
C5       0.83927    -0.02445   0.07149   1.00
C5       0.66776    -0.01105   0.21064   1.00
C5       0.83150    -0.11070   0.29319   1.00
H2       0.67088    0.00912    0.23587   1.00
H2       0.65074    -0.03712   0.22016   1.00
H2       0.84744    -0.08300   0.28695   1.00
H2       0.83261    -0.12895   0.26614   1.00
H2       0.86886    -0.19030   0.30629   1.00
H2       0.61871    0.05753    0.21235   1.00
H2       0.59088    0.01237    0.21201   1.00
C2       0.75023    0.10395    0.24733   1.00
C3       0.72511    0.08403    0.27320   1.00
O2       0.69421    0.10326    0.29041   1.00
C3       0.77617    0.08174    0.22412   1.00
H1       0.79647    0.09615    0.20477   1.00
C3a      0.72570    0.04287    0.27456   1.00
H1       0.70475    0.02798    0.29287   1.00
C3b      0.77582    0.04078    0.22464   1.00
C4       0.75041    0.02100    0.24992   1.00
O3       0.70449    -0.02167   0.19537   1.00
C5       0.70331    0.11280    0.32941   1.00
H2       0.70986    0.08609    0.34690   1.00
C5       0.66769    0.13326    0.34648   1.00
H2       0.72897    0.13274    0.33084   1.00
H2       0.64581    0.11068    0.35470   1.00
H2       0.65429    0.15093    0.32271   1.00
C5       0.67762    0.15918    0.38180   1.00
H2       0.69371    0.14176    0.40391   1.00
C5       0.64023    0.17547    0.40063   1.00
H2       0.69562    0.18493    0.37298   1.00
C5       0.64537    0.00983    0.17836   1.00
H2       0.63641    -0.01215   0.15615   1.00
H2       0.66568    0.03048    0.16359   1.00
C5       0.60967    0.03200    0.19424   1.00
C5       0.58501    0.04775    0.16016   1.00
H2       0.89391    -0.19286   0.37045   1.00
C5       0.94738    -0.18912   0.33514   1.00
H2       0.91567    -0.14323   0.36689   1.00
C5       0.82333    -0.03337   0.03044   1.00
H2       0.86649    -0.00551   0.06893   1.00
H2       0.84698    -0.05293   0.08682   1.00
C5       0.65047    0.19503    0.43976   1.00
H2       0.62644    0.19789    0.38031   1.00
H2       0.61876    0.15063    0.40594   1.00
H2       0.60469    0.06398    0.13882   1.00
H2       0.57024    0.02239    0.14452   1.00
C5       0.55374    0.07583    0.17602   1.00
H2       0.94271    -0.20116   0.30450   1.00
H2       0.97099    -0.16571   0.33437   1.00
H2       0.95685    -0.21374   0.35540   1.00
H2       0.79401    -0.01820   0.02640   1.00
H2       0.84478    -0.02229   0.00757   1.00
H2       0.81939    -0.06621   0.02698   1.00
H2       0.67943    0.21111    0.43687   1.00
H2       0.62655    0.21664    0.44794   1.00
H2       0.65299    0.17181    0.46343   1.00
H2       0.56552    0.10693    0.17558   1.00
H2       0.52653    0.07402    0.15699   1.00
H2       0.54602    0.06734    0.20723   1.00
C5       0.82715    0.35061    -0.13218   1.00
H2       0.84240    0.32645    -0.14745   1.00
H2       0.84850    0.36252    -0.11090   1.00
C5       0.81544    0.38216    -0.16194   1.00
C5       0.85022    0.40903    -0.17123   1.00
H2       0.79105    0.40008    -0.15015   1.00
O3       0.70199    0.30206    0.02000   1.00
C4       0.75008    0.24959    -0.02100   1.00
C3c      0.77621    0.27276    -0.04243   1.00
H1       0.79697    0.29102    -0.02725   1.00
C3d      0.72364    0.22558    -0.04135   1.00
C3       0.77567    0.27323    -0.08354   1.00
O2       0.80513    0.29287    -0.10248   1.00
C3       0.72252    0.22654    -0.08227   1.00
H1       0.70081    0.20867    -0.09657   1.00
C2       0.74845    0.25012    -0.10439   1.00
C5       0.66264    0.28991    0.02121   1.00
H2       0.65121    0.28824    0.05162   1.00
H2       0.65896    0.26068    0.00734   1.00
C5       0.63860    0.31982    -0.00129   1.00
H2       0.65071    0.32230    -0.03137   1.00
H2       0.64219    0.34881    0.01302   1.00
C5       0.59527    0.30802    -0.00262   1.00
H2       0.58306    0.30523    0.02732   1.00
H2       0.59151    0.27973    -0.01811   1.00
C5       0.57149    0.33927    -0.02445   1.00
C5       0.71064    0.16776    -0.01105   1.00
C5       0.79319    0.33150    -0.11070   1.00
H2       0.73587    0.17088    0.00912   1.00
H2       0.72016    0.15074    -0.03712   1.00
H2       0.78695    0.34744    -0.08300   1.00
H2       0.76614    0.33261    -0.12895   1.00
H2       0.80629    0.36886    -0.19030   1.00
H2       0.71235    0.11871    0.05753   1.00
H2       0.71201    0.09088    0.01237   1.00
C2       0.74733    0.25023    0.10395   1.00
C3       0.77320    0.22511    0.08403   1.00
O2       0.79041    0.19421    0.10326   1.00
C3       0.72412    0.27617    0.08174   1.00
H1       0.70477    0.29647    0.09615   1.00
C3a      0.77456    0.22570    0.04287   1.00
H1       0.79287    0.20475    0.02798   1.00
C3b      0.72464    0.27582    0.04078   1.00
C4       0.74992    0.25041    0.02100   1.00
O3       0.69537    0.20449    -0.02167   1.00
C5       0.82941    0.20331    0.11280   1.00
H2       0.84690    0.20986    0.08609   1.00
C5       0.84648    0.16769    0.13326   1.00
H2       0.83084    0.22897    0.13274   1.00
H2       0.85470    0.14581    0.11068   1.00
H2       0.82271    0.15429    0.15093   1.00
C5       0.88180    0.17762    0.15918   1.00
H2       0.90391    0.19371    0.14176   1.00
C5       0.90063    0.14023    0.17547   1.00
H2       0.87298    0.19562    0.18493   1.00
C5       0.67836    0.14537    0.00983   1.00
H2       0.65615    0.13641    -0.01215   1.00
H2       0.66359    0.16568    0.03048   1.00
C5       0.69424    0.10967    0.03200   1.00
C5       0.66016    0.08501    0.04775   1.00
H2       0.87045    0.39391    -0.19286   1.00
C5       0.83514    0.44738    -0.18912   1.00
H2       0.86689    0.41567    -0.14323   1.00
C5       0.53044    0.32333    -0.03337   1.00
H2       0.56893    0.36649    -0.00551   1.00
H2       0.58682    0.34698    -0.05293   1.00
C5       0.93976    0.15047    0.19503   1.00
H2       0.88031    0.12644    0.19789   1.00
H2       0.90594    0.11876    0.15063   1.00
H2       0.63882    0.10469    0.06398   1.00
H2       0.64452    0.07024    0.02239   1.00
C5       0.67602    0.05374    0.07583   1.00
H2       0.80450    0.44271    -0.20116   1.00
H2       0.83437    0.47099    -0.16571   1.00
H2       0.85540    0.45685    -0.21374   1.00
H2       0.52640    0.29401    -0.01820   1.00
H2       0.50757    0.34478    -0.02229   1.00
H2       0.52698    0.31939    -0.06621   1.00
H2       0.93687    0.17943    0.21111   1.00
H2       0.94794    0.12655    0.21664   1.00
H2       0.96343    0.15299    0.17181   1.00
H2       0.67558    0.06552    0.10693   1.00
H2       0.65699    0.02653    0.07402   1.00
H2       0.70723    0.04602    0.06734   1.00
C5       1.07715    0.89939    1.38218   1.00
H2       1.09240    0.92355    1.39745   1.00
H2       1.09850    0.88748    1.36090   1.00
C5       1.06544    0.86784    1.41194   1.00
C5       1.10022    0.84097    1.42123   1.00
H2       1.04105    0.84992    1.40015   1.00
O3       0.95199    0.94794    1.23000   1.00
C4       1.00008    1.00041    1.27100   1.00
C3c      1.02621    0.97724    1.29243   1.00
H1       1.04697    0.95898    1.27725   1.00
C3d      0.97364    1.02442    1.29135   1.00
C3       1.02567    0.97677    1.33354   1.00
O2       1.05513    0.95713    1.35248   1.00
C3       0.97252    1.02346    1.33227   1.00
H1       0.95081    1.04133    1.34657   1.00
C2       0.99845    0.99988    1.35439   1.00
C5       0.91264    0.96009    1.22879   1.00
H2       0.90121    0.96176    1.19838   1.00
H2       0.90896    0.98932    1.24266   1.00
C5       0.88860    0.93018    1.25129   1.00
H2       0.90071    0.92770    1.28137   1.00
H2       0.89219    0.90119    1.23698   1.00
C5       0.84527    0.94198    1.25262   1.00
H2       0.83306    0.94477    1.22268   1.00
H2       0.84151    0.97027    1.26811   1.00
C5       0.82149    0.91073    1.27445   1.00
C5       0.96064    1.08224    1.26105   1.00
C5       1.04319    0.91850    1.36070   1.00
H2       0.98587    1.07912    1.24088   1.00
H2       0.97016    1.09926    1.28712   1.00
H2       1.03695    0.90256    1.33300   1.00
H2       1.01614    0.91739    1.37895   1.00
H2       1.05629    0.88114    1.44030   1.00
H2       0.96235    1.13129    1.19247   1.00
H2       0.96201    1.15912    1.23763   1.00
C2       0.99733    0.99977    1.14605   1.00
C3       1.02320    1.02489    1.16597   1.00
O2       1.04041    1.05579    1.14674   1.00
C3       0.97412    0.97383    1.16826   1.00
H1       0.95477    0.95353    1.15385   1.00
C3a      1.02456    1.02430    1.20713   1.00
H1       1.04287    1.04525    1.22202   1.00
C3b      0.97464    0.97418    1.20922   1.00
C4       0.99992    0.99959    1.22900   1.00
O3       0.94537    1.04551    1.27167   1.00
C5       1.07941    1.04669    1.13720   1.00
H2       1.09690    1.04014    1.16391   1.00
C5       1.09648    1.08231    1.11674   1.00
H2       1.08084    1.02103    1.11726   1.00
H2       1.10470    1.10419    1.13932   1.00
H2       1.07271    1.09571    1.09907   1.00
C5       1.13180    1.07238    1.09082   1.00
H2       1.15391    1.05629    1.10824   1.00
C5       1.15063    1.10977    1.07453   1.00
H2       1.12298    1.05438    1.06507   1.00
C5       0.92836    1.10463    1.24017   1.00
H2       0.90615    1.11359    1.26215   1.00
H2       0.91359    1.08432    1.21952   1.00
C5       0.94424    1.14033    1.21800   1.00
C5       0.91016    1.16499    1.20225   1.00
H2       1.12045    0.85609    1.44286   1.00
C5       1.08514    0.80262    1.43912   1.00
H2       1.11689    0.83433    1.39323   1.00
C5       0.78044    0.92667    1.28337   1.00
H2       0.81893    0.88351    1.25551   1.00
H2       0.83682    0.90302    1.30293   1.00
C5       1.18976    1.09953    1.05497   1.00
H2       1.13031    1.12356    1.05211   1.00
H2       1.15594    1.13124    1.09937   1.00
H2       0.88882    1.14531    1.18602   1.00
H2       0.89452    1.17976    1.22761   1.00
C5       0.92602    1.19626    1.17417   1.00
H2       1.05450    0.80729    1.45116   1.00
H2       1.08437    0.77901    1.41571   1.00
H2       1.10540    0.79315    1.46374   1.00
H2       0.77640    0.95599    1.26820   1.00
H2       0.75757    0.90522    1.27229   1.00
H2       0.77698    0.93061    1.31621   1.00
H2       1.18687    1.07057    1.03889   1.00
H2       1.19794    1.12345    1.03336   1.00
H2       1.21343    1.09701    1.07819   1.00
H2       0.92558    1.18448    1.14307   1.00
H2       0.90699    1.22347    1.17598   1.00
H2       0.95723    1.20398    1.18266   1.00
C5       0.89939    1.38218    1.07715   1.00
H2       0.92355    1.39745    1.09240   1.00
H2       0.88748    1.36090    1.09850   1.00
C5       0.86784    1.41194    1.06544   1.00
C5       0.84097    1.42123    1.10022   1.00
H2       0.84992    1.40015    1.04105   1.00
O3       0.94794    1.23000    0.95199   1.00
C4       1.00041    1.27100    1.00008   1.00
C3c      0.97724    1.29243    1.02621   1.00
H1       0.95898    1.27725    1.04697   1.00
C3d      1.02442    1.29135    0.97364   1.00
C3       0.97677    1.33354    1.02567   1.00
O2       0.95713    1.35248    1.05513   1.00
C3       1.02346    1.33227    0.97252   1.00
H1       1.04133    1.34657    0.95081   1.00
C2       0.99988    1.35439    0.99845   1.00
C5       0.96009    1.22879    0.91264   1.00
H2       0.96176    1.19838    0.90121   1.00
H2       0.98932    1.24266    0.90896   1.00
C5       0.93018    1.25129    0.88860   1.00
H2       0.92770    1.28137    0.90071   1.00
H2       0.90119    1.23698    0.89219   1.00
C5       0.94198    1.25262    0.84527   1.00
H2       0.94477    1.22268    0.83306   1.00
H2       0.97027    1.26811    0.84151   1.00
C5       0.91073    1.27445    0.82149   1.00
C5       1.08224    1.26105    0.96064   1.00
C5       0.91850    1.36070    1.04319   1.00
H2       1.07912    1.24088    0.98587   1.00
H2       1.09926    1.28712    0.97016   1.00
H2       0.90256    1.33300    1.03695   1.00
H2       0.91739    1.37895    1.01614   1.00
H2       0.88114    1.44030    1.05629   1.00
H2       1.13129    1.19247    0.96235   1.00
H2       1.15912    1.23763    0.96201   1.00
C2       0.99977    1.14605    0.99733   1.00
C3       1.02489    1.16597    1.02320   1.00
O2       1.05579    1.14674    1.04041   1.00
C3       0.97383    1.16826    0.97412   1.00
H1       0.95353    1.15385    0.95477   1.00
C3a      1.02430    1.20713    1.02456   1.00
H1       1.04525    1.22202    1.04287   1.00
C3b      0.97418    1.20922    0.97464   1.00
C4       0.99959    1.22900    0.99992   1.00
O3       1.04551    1.27167    0.94537   1.00
C5       1.04669    1.13720    1.07941   1.00
H2       1.04014    1.16391    1.09690   1.00
C5       1.08231    1.11674    1.09648   1.00
H2       1.02103    1.11726    1.08084   1.00
H2       1.10419    1.13932    1.10470   1.00
H2       1.09571    1.09907    1.07271   1.00
C5       1.07238    1.09082    1.13180   1.00
H2       1.05629    1.10824    1.15391   1.00
C5       1.10977    1.07453    1.15063   1.00
H2       1.05438    1.06507    1.12298   1.00
C5       1.10463    1.24017    0.92836   1.00
H2       1.11359    1.26215    0.90615   1.00
H2       1.08432    1.21952    0.91359   1.00
C5       1.14033    1.21800    0.94424   1.00
C5       1.16499    1.20225    0.91016   1.00
H2       0.85609    1.44286    1.12045   1.00
C5       0.80262    1.43912    1.08514   1.00
H2       0.83433    1.39323    1.11689   1.00
C5       0.92667    1.28337    0.78044   1.00
H2       0.88351    1.25551    0.81893   1.00
H2       0.90302    1.30293    0.83682   1.00
C5       1.09953    1.05497    1.18976   1.00
H2       1.12356    1.05211    1.13031   1.00
H2       1.13124    1.09937    1.15594   1.00
H2       1.14531    1.18602    0.88882   1.00
H2       1.17976    1.22761    0.89452   1.00
C5       1.19626    1.17417    0.92602   1.00
H2       0.80729    1.45116    1.05450   1.00
H2       0.77901    1.41571    1.08437   1.00
H2       0.79315    1.46374    1.10540   1.00
H2       0.95599    1.26820    0.77640   1.00
H2       0.90522    1.27229    0.75757   1.00
H2       0.93061    1.31621    0.77698   1.00
H2       1.07057    1.03889    1.18687   1.00
H2       1.12345    1.03336    1.19794   1.00
H2       1.09701    1.07819    1.21343   1.00
H2       1.18448    1.14307    0.92558   1.00
H2       1.22347    1.17598    0.90699   1.00
H2       1.20398    1.18266    0.95723   1.00
C5       0.61782    1.07715    1.10061   1.00
H2       0.60255    1.09240    1.07645   1.00
H2       0.63910    1.09850    1.11252   1.00
C5       0.58806    1.06544    1.13216   1.00
C5       0.57877    1.10022    1.15903   1.00
H2       0.59985    1.04105    1.15008   1.00
O3       0.77000    0.95199    1.05206   1.00
C4       0.72900    1.00008    0.99959   1.00
C3c      0.70757    1.02621    1.02276   1.00
H1       0.72275    1.04697    1.04102   1.00
C3d      0.70865    0.97364    0.97558   1.00
C3       0.66646    1.02567    1.02323   1.00
O2       0.64752    1.05513    1.04287   1.00
C3       0.66773    0.97252    0.97654   1.00
H1       0.65343    0.95081    0.95867   1.00
C2       0.64561    0.99845    1.00012   1.00
C5       0.77121    0.91264    1.03991   1.00
H2       0.80162    0.90121    1.03824   1.00
H2       0.75734    0.90896    1.01068   1.00
C5       0.74871    0.88860    1.06982   1.00
H2       0.71863    0.90071    1.07230   1.00
H2       0.76302    0.89219    1.09881   1.00
C5       0.74738    0.84527    1.05802   1.00
H2       0.77732    0.83306    1.05523   1.00
H2       0.73189    0.84151    1.02973   1.00
C5       0.72555    0.82149    1.08927   1.00
C5       0.73895    0.96064    0.91776   1.00
C5       0.63930    1.04319    1.08150   1.00
H2       0.75912    0.98587    0.92088   1.00
H2       0.71288    0.97016    0.90074   1.00
H2       0.66700    1.03695    1.09744   1.00
H2       0.62105    1.01614    1.08261   1.00
H2       0.55970    1.05629    1.11886   1.00
H2       0.80753    0.96235    0.86871   1.00
H2       0.76237    0.96201    0.84088   1.00
C2       0.85395    0.99733    1.00023   1.00
C3       0.83403    1.02320    0.97511   1.00
O2       0.85326    1.04041    0.94421   1.00
C3       0.83174    0.97412    1.02617   1.00
H1       0.84615    0.95477    1.04647   1.00
C3a      0.79287    1.02456    0.97570   1.00
H1       0.77798    1.04287    0.95475   1.00
C3b      0.79078    0.97464    1.02582   1.00
C4       0.77100    0.99992    1.00041   1.00
O3       0.72833    0.94537    0.95449   1.00
C5       0.86280    1.07941    0.95331   1.00
H2       0.83609    1.09690    0.95986   1.00
C5       0.88326    1.09648    0.91769   1.00
H2       0.88274    1.08084    0.97897   1.00
H2       0.86068    1.10470    0.89581   1.00
H2       0.90093    1.07271    0.90429   1.00
C5       0.90918    1.13180    0.92762   1.00
H2       0.89176    1.15391    0.94371   1.00
C5       0.92547    1.15063    0.89023   1.00
H2       0.93493    1.12298    0.94562   1.00
C5       0.75983    0.92836    0.89537   1.00
H2       0.73785    0.90615    0.88641   1.00
H2       0.78048    0.91359    0.91568   1.00
C5       0.78200    0.94424    0.85967   1.00
C5       0.79775    0.91016    0.83501   1.00
H2       0.55714    1.12045    1.14391   1.00
C5       0.56088    1.08514    1.19738   1.00
H2       0.60677    1.11689    1.16567   1.00
C5       0.71663    0.78044    1.07333   1.00
H2       0.74449    0.81893    1.11649   1.00
H2       0.69707    0.83682    1.09698   1.00
C5       0.94503    1.18976    0.90047   1.00
H2       0.94789    1.13031    0.87644   1.00
H2       0.90063    1.15594    0.86876   1.00
H2       0.81398    0.88882    0.85469   1.00
H2       0.77239    0.89452    0.82024   1.00
C5       0.82583    0.92602    0.80374   1.00
H2       0.54884    1.05450    1.19271   1.00
H2       0.58429    1.08437    1.22099   1.00
H2       0.53626    1.10540    1.20685   1.00
H2       0.73180    0.77640    1.04401   1.00
H2       0.72771    0.75757    1.09478   1.00
H2       0.68379    0.77698    1.06939   1.00
H2       0.96111    1.18687    0.92943   1.00
H2       0.96664    1.19794    0.87655   1.00
H2       0.92181    1.21343    0.90299   1.00
H2       0.85693    0.92558    0.81552   1.00
H2       0.82402    0.90699    0.77653   1.00
H2       0.81734    0.95723    0.79602   1.00
C5       1.38218    1.07715    0.89939   1.00
H2       1.39745    1.09240    0.92355   1.00
H2       1.36090    1.09850    0.88748   1.00
C5       1.41194    1.06544    0.86784   1.00
C5       1.42123    1.10022    0.84097   1.00
H2       1.40015    1.04105    0.84992   1.00
O3       1.23000    0.95199    0.94794   1.00
C4       1.27100    1.00008    1.00041   1.00
C3c      1.29243    1.02621    0.97724   1.00
H1       1.27725    1.04697    0.95898   1.00
C3d      1.29135    0.97364    1.02442   1.00
C3       1.33354    1.02567    0.97677   1.00
O2       1.35248    1.05513    0.95713   1.00
C3       1.33227    0.97252    1.02346   1.00
H1       1.34657    0.95081    1.04133   1.00
C2       1.35439    0.99845    0.99988   1.00
C5       1.22879    0.91264    0.96009   1.00
H2       1.19838    0.90121    0.96176   1.00
H2       1.24266    0.90896    0.98932   1.00
C5       1.25129    0.88860    0.93018   1.00
H2       1.28137    0.90071    0.92770   1.00
H2       1.23698    0.89219    0.90119   1.00
C5       1.25262    0.84527    0.94198   1.00
H2       1.22268    0.83306    0.94477   1.00
H2       1.26811    0.84151    0.97027   1.00
C5       1.27445    0.82149    0.91073   1.00
C5       1.26105    0.96064    1.08224   1.00
C5       1.36070    1.04319    0.91850   1.00
H2       1.24088    0.98587    1.07912   1.00
H2       1.28712    0.97016    1.09926   1.00
H2       1.33300    1.03695    0.90256   1.00
H2       1.37895    1.01614    0.91739   1.00
H2       1.44030    1.05629    0.88114   1.00
H2       1.19247    0.96235    1.13129   1.00
H2       1.23763    0.96201    1.15912   1.00
C2       1.14605    0.99733    0.99977   1.00
C3       1.16597    1.02320    1.02489   1.00
O2       1.14674    1.04041    1.05579   1.00
C3       1.16826    0.97412    0.97383   1.00
H1       1.15385    0.95477    0.95353   1.00
C3a      1.20713    1.02456    1.02430   1.00
H1       1.22202    1.04287    1.04525   1.00
C3b      1.20922    0.97464    0.97418   1.00
C4       1.22900    0.99992    0.99959   1.00
O3       1.27167    0.94537    1.04551   1.00
C5       1.13720    1.07941    1.04669   1.00
H2       1.16391    1.09690    1.04014   1.00
C5       1.11674    1.09648    1.08231   1.00
H2       1.11726    1.08084    1.02103   1.00
H2       1.13932    1.10470    1.10419   1.00
H2       1.09907    1.07271    1.09571   1.00
C5       1.09082    1.13180    1.07238   1.00
H2       1.10824    1.15391    1.05629   1.00
C5       1.07453    1.15063    1.10977   1.00
H2       1.06507    1.12298    1.05438   1.00
C5       1.24017    0.92836    1.10463   1.00
H2       1.26215    0.90615    1.11359   1.00
H2       1.21952    0.91359    1.08432   1.00
C5       1.21800    0.94424    1.14033   1.00
C5       1.20225    0.91016    1.16499   1.00
H2       1.44286    1.12045    0.85609   1.00
C5       1.43912    1.08514    0.80262   1.00
H2       1.39323    1.11689    0.83433   1.00
C5       1.28337    0.78044    0.92667   1.00
H2       1.25551    0.81893    0.88351   1.00
H2       1.30293    0.83682    0.90302   1.00
C5       1.05497    1.18976    1.09953   1.00
H2       1.05211    1.13031    1.12356   1.00
H2       1.09937    1.15594    1.13124   1.00
H2       1.18602    0.88882    1.14531   1.00
H2       1.22761    0.89452    1.17976   1.00
C5       1.17417    0.92602    1.19626   1.00
H2       1.45116    1.05450    0.80729   1.00
H2       1.41571    1.08437    0.77901   1.00
H2       1.46374    1.10540    0.79315   1.00
H2       1.26820    0.77640    0.95599   1.00
H2       1.27229    0.75757    0.90522   1.00
H2       1.31621    0.77698    0.93061   1.00
H2       1.03889    1.18687    1.07057   1.00
H2       1.03336    1.19794    1.12345   1.00
H2       1.07819    1.21343    1.09701   1.00
H2       1.14307    0.92558    1.18448   1.00
H2       1.17598    0.90699    1.22347   1.00
H2       1.18266    0.95723    1.20398   1.00
C5       1.10061    0.61782    1.07715   1.00
H2       1.07645    0.60255    1.09240   1.00
H2       1.11252    0.63910    1.09850   1.00
C5       1.13216    0.58806    1.06544   1.00
C5       1.15903    0.57877    1.10022   1.00
H2       1.15008    0.59985    1.04105   1.00
O3       1.05206    0.77000    0.95199   1.00
C4       0.99959    0.72900    1.00008   1.00
C3c      1.02276    0.70757    1.02621   1.00
H1       1.04102    0.72275    1.04697   1.00
C3d      0.97558    0.70865    0.97364   1.00
C3       1.02323    0.66646    1.02567   1.00
O2       1.04287    0.64752    1.05513   1.00
C3       0.97654    0.66773    0.97252   1.00
H1       0.95867    0.65343    0.95081   1.00
C2       1.00012    0.64561    0.99845   1.00
C5       1.03991    0.77121    0.91264   1.00
H2       1.03824    0.80162    0.90121   1.00
H2       1.01068    0.75734    0.90896   1.00
C5       1.06982    0.74871    0.88860   1.00
H2       1.07230    0.71863    0.90071   1.00
H2       1.09881    0.76302    0.89219   1.00
C5       1.05802    0.74738    0.84527   1.00
H2       1.05523    0.77732    0.83306   1.00
H2       1.02973    0.73189    0.84151   1.00
C5       1.08927    0.72555    0.82149   1.00
C5       0.91776    0.73895    0.96064   1.00
C5       1.08150    0.63930    1.04319   1.00
H2       0.92088    0.75912    0.98587   1.00
H2       0.90074    0.71288    0.97016   1.00
H2       1.09744    0.66700    1.03695   1.00
H2       1.08261    0.62105    1.01614   1.00
H2       1.11886    0.55970    1.05629   1.00
H2       0.86871    0.80753    0.96235   1.00
H2       0.84088    0.76237    0.96201   1.00
C2       1.00023    0.85395    0.99733   1.00
C3       0.97511    0.83403    1.02320   1.00
O2       0.94421    0.85326    1.04041   1.00
C3       1.02617    0.83174    0.97412   1.00
H1       1.04647    0.84615    0.95477   1.00
C3a      0.97570    0.79287    1.02456   1.00
H1       0.95475    0.77798    1.04287   1.00
C3b      1.02582    0.79078    0.97464   1.00
C4       1.00041    0.77100    0.99992   1.00
O3       0.95449    0.72833    0.94537   1.00
C5       0.95331    0.86280    1.07941   1.00
H2       0.95986    0.83609    1.09690   1.00
C5       0.91769    0.88326    1.09648   1.00
H2       0.97897    0.88274    1.08084   1.00
H2       0.89581    0.86068    1.10470   1.00
H2       0.90429    0.90093    1.07271   1.00
C5       0.92762    0.90918    1.13180   1.00
H2       0.94371    0.89176    1.15391   1.00
C5       0.89023    0.92547    1.15063   1.00
H2       0.94562    0.93493    1.12298   1.00
C5       0.89537    0.75983    0.92836   1.00
H2       0.88641    0.73785    0.90615   1.00
H2       0.91568    0.78048    0.91359   1.00
C5       0.85967    0.78200    0.94424   1.00
C5       0.83501    0.79775    0.91016   1.00
H2       1.14391    0.55714    1.12045   1.00
C5       1.19738    0.56088    1.08514   1.00
H2       1.16567    0.60677    1.11689   1.00
C5       1.07333    0.71663    0.78044   1.00
H2       1.11649    0.74449    0.81893   1.00
H2       1.09698    0.69707    0.83682   1.00
C5       0.90047    0.94503    1.18976   1.00
H2       0.87644    0.94789    1.13031   1.00
H2       0.86876    0.90063    1.15594   1.00
H2       0.85469    0.81398    0.88882   1.00
H2       0.82024    0.77239    0.89452   1.00
C5       0.80374    0.82583    0.92602   1.00
H2       1.19271    0.54884    1.05450   1.00
H2       1.22099    0.58429    1.08437   1.00
H2       1.20685    0.53626    1.10540   1.00
H2       1.04401    0.73180    0.77640   1.00
H2       1.09478    0.72771    0.75757   1.00
H2       1.06939    0.68379    0.77698   1.00
H2       0.92943    0.96111    1.18687   1.00
H2       0.87655    0.96664    1.19794   1.00
H2       0.90299    0.92181    1.21343   1.00
H2       0.81552    0.85693    0.92558   1.00
H2       0.77653    0.82402    0.90699   1.00
H2       0.79602    0.81734    0.95723   1.00
C5       1.07715    1.10061    0.61782   1.00
H2       1.09240    1.07645    0.60255   1.00
H2       1.09850    1.11252    0.63910   1.00
C5       1.06544    1.13216    0.58806   1.00
C5       1.10022    1.15903    0.57877   1.00
H2       1.04105    1.15008    0.59985   1.00
O3       0.95199    1.05206    0.77000   1.00
C4       1.00008    0.99959    0.72900   1.00
C3c      1.02621    1.02276    0.70757   1.00
H1       1.04697    1.04102    0.72275   1.00
C3d      0.97364    0.97558    0.70865   1.00
C3       1.02567    1.02323    0.66646   1.00
O2       1.05513    1.04287    0.64752   1.00
C3       0.97252    0.97654    0.66773   1.00
H1       0.95081    0.95867    0.65343   1.00
C2       0.99845    1.00012    0.64561   1.00
C5       0.91264    1.03991    0.77121   1.00
H2       0.90121    1.03824    0.80162   1.00
H2       0.90896    1.01068    0.75734   1.00
C5       0.88860    1.06982    0.74871   1.00
H2       0.90071    1.07230    0.71863   1.00
H2       0.89219    1.09881    0.76302   1.00
C5       0.84527    1.05802    0.74738   1.00
H2       0.83306    1.05523    0.77732   1.00
H2       0.84151    1.02973    0.73189   1.00
C5       0.82149    1.08927    0.72555   1.00
C5       0.96064    0.91776    0.73895   1.00
C5       1.04319    1.08150    0.63930   1.00
H2       0.98587    0.92088    0.75912   1.00
H2       0.97016    0.90074    0.71288   1.00
H2       1.03695    1.09744    0.66700   1.00
H2       1.01614    1.08261    0.62105   1.00
H2       1.05629    1.11886    0.55970   1.00
H2       0.96235    0.86871    0.80753   1.00
H2       0.96201    0.84088    0.76237   1.00
C2       0.99733    1.00023    0.85395   1.00
C3       1.02320    0.97511    0.83403   1.00
O2       1.04041    0.94421    0.85326   1.00
C3       0.97412    1.02617    0.83174   1.00
H1       0.95477    1.04647    0.84615   1.00
C3a      1.02456    0.97570    0.79287   1.00
H1       1.04287    0.95475    0.77798   1.00
C3b      0.97464    1.02582    0.79078   1.00
C4       0.99992    1.00041    0.77100   1.00
O3       0.94537    0.95449    0.72833   1.00
C5       1.07941    0.95331    0.86280   1.00
H2       1.09690    0.95986    0.83609   1.00
C5       1.09648    0.91769    0.88326   1.00
H2       1.08084    0.97897    0.88274   1.00
H2       1.10470    0.89581    0.86068   1.00
H2       1.07271    0.90429    0.90093   1.00
C5       1.13180    0.92762    0.90918   1.00
H2       1.15391    0.94371    0.89176   1.00
C5       1.15063    0.89023    0.92547   1.00
H2       1.12298    0.94562    0.93493   1.00
C5       0.92836    0.89537    0.75983   1.00
H2       0.90615    0.88641    0.73785   1.00
H2       0.91359    0.91568    0.78048   1.00
C5       0.94424    0.85967    0.78200   1.00
C5       0.91016    0.83501    0.79775   1.00
H2       1.12045    1.14391    0.55714   1.00
C5       1.08514    1.19738    0.56088   1.00
H2       1.11689    1.16567    0.60677   1.00
C5       0.78044    1.07333    0.71663   1.00
H2       0.81893    1.11649    0.74449   1.00
H2       0.83682    1.09698    0.69707   1.00
C5       1.18976    0.90047    0.94503   1.00
H2       1.13031    0.87644    0.94789   1.00
H2       1.15594    0.86876    0.90063   1.00
H2       0.88882    0.85469    0.81398   1.00
H2       0.89452    0.82024    0.77239   1.00
C5       0.92602    0.80374    0.82583   1.00
H2       1.05450    1.19271    0.54884   1.00
H2       1.08437    1.22099    0.58429   1.00
H2       1.10540    1.20685    0.53626   1.00
H2       0.77640    1.04401    0.73180   1.00
H2       0.75757    1.09478    0.72771   1.00
H2       0.77698    1.06939    0.68379   1.00
H2       1.18687    0.92943    0.96111   1.00
H2       1.19794    0.87655    0.96664   1.00
H2       1.21343    0.90299    0.92181   1.00
H2       0.92558    0.81552    0.85693   1.00
H2       0.90699    0.77653    0.82402   1.00
H2       0.95723    0.79602    0.81734   1.00
C5       0.57715    0.39939    1.38218   1.00
H2       0.59240    0.42355    1.39745   1.00
H2       0.59850    0.38748    1.36090   1.00
C5       0.56544    0.36784    1.41194   1.00
C5       0.60022    0.34097    1.42123   1.00
H2       0.54105    0.34992    1.40015   1.00
O3       0.45199    0.44794    1.23000   1.00
C4       0.50008    0.50041    1.27100   1.00
C3c      0.52621    0.47724    1.29243   1.00
H1       0.54697    0.45898    1.27725   1.00
C3d      0.47364    0.52442    1.29135   1.00
C3       0.52567    0.47677    1.33354   1.00
O2       0.55513    0.45713    1.35248   1.00
C3       0.47252    0.52346    1.33227   1.00
H1       0.45081    0.54133    1.34657   1.00
C2       0.49845    0.49988    1.35439   1.00
C5       0.41264    0.46009    1.22879   1.00
H2       0.40121    0.46176    1.19838   1.00
H2       0.40896    0.48932    1.24266   1.00
C5       0.38860    0.43018    1.25129   1.00
H2       0.40071    0.42770    1.28137   1.00
H2       0.39219    0.40119    1.23698   1.00
C5       0.34527    0.44198    1.25262   1.00
H2       0.33306    0.44477    1.22268   1.00
H2       0.34151    0.47027    1.26811   1.00
C5       0.32149    0.41073    1.27445   1.00
C5       0.46064    0.58224    1.26105   1.00
C5       0.54319    0.41850    1.36070   1.00
H2       0.48587    0.57912    1.24088   1.00
H2       0.47016    0.59926    1.28712   1.00
H2       0.53695    0.40256    1.33300   1.00
H2       0.51614    0.41739    1.37895   1.00
H2       0.55629    0.38114    1.44030   1.00
H2       0.46235    0.63129    1.19247   1.00
H2       0.46201    0.65912    1.23763   1.00
C2       0.49733    0.49977    1.14605   1.00
C3       0.52320    0.52489    1.16597   1.00
O2       0.54041    0.55579    1.14674   1.00
C3       0.47412    0.47383    1.16826   1.00
H1       0.45477    0.45353    1.15385   1.00
C3a      0.52456    0.52430    1.20713   1.00
H1       0.54287    0.54525    1.22202   1.00
C3b      0.47464    0.47418    1.20922   1.00
C4       0.49992    0.49959    1.22900   1.00
O3       0.44537    0.54551    1.27167   1.00
C5       0.57941    0.54669    1.13720   1.00
H2       0.59690    0.54014    1.16391   1.00
C5       0.59648    0.58231    1.11674   1.00
H2       0.58084    0.52103    1.11726   1.00
H2       0.60470    0.60419    1.13932   1.00
H2       0.57271    0.59571    1.09907   1.00
C5       0.63180    0.57238    1.09082   1.00
H2       0.65391    0.55629    1.10824   1.00
C5       0.65063    0.60977    1.07453   1.00
H2       0.62298    0.55438    1.06507   1.00
C5       0.42836    0.60463    1.24017   1.00
H2       0.40615    0.61359    1.26215   1.00
H2       0.41359    0.58432    1.21952   1.00
C5       0.44424    0.64033    1.21800   1.00
C5       0.41016    0.66499    1.20225   1.00
H2       0.62045    0.35609    1.44286   1.00
C5       0.58514    0.30262    1.43912   1.00
H2       0.61689    0.33433    1.39323   1.00
C5       0.28044    0.42667    1.28337   1.00
H2       0.31893    0.38351    1.25551   1.00
H2       0.33682    0.40302    1.30293   1.00
C5       0.68976    0.59953    1.05497   1.00
H2       0.63031    0.62356    1.05211   1.00
H2       0.65594    0.63124    1.09937   1.00
H2       0.38882    0.64531    1.18602   1.00
H2       0.39452    0.67976    1.22761   1.00
C5       0.42602    0.69626    1.17417   1.00
H2       0.55450    0.30729    1.45116   1.00
H2       0.58437    0.27901    1.41571   1.00
H2       0.60540    0.29315    1.46374   1.00
H2       0.27640    0.45599    1.26820   1.00
H2       0.25757    0.40522    1.27229   1.00
H2       0.27698    0.43061    1.31621   1.00
H2       0.68687    0.57057    1.03889   1.00
H2       0.69794    0.62345    1.03336   1.00
H2       0.71343    0.59701    1.07819   1.00
H2       0.42558    0.68448    1.14307   1.00
H2       0.40699    0.72347    1.17598   1.00
H2       0.45723    0.70398    1.18266   1.00
C5       0.39939    0.88218    1.07715   1.00
H2       0.42355    0.89745    1.09240   1.00
H2       0.38748    0.86090    1.09850   1.00
C5       0.36784    0.91194    1.06544   1.00
C5       0.34097    0.92123    1.10022   1.00
H2       0.34992    0.90015    1.04105   1.00
O3       0.44794    0.73000    0.95199   1.00
C4       0.50041    0.77100    1.00008   1.00
C3c      0.47724    0.79243    1.02621   1.00
H1       0.45898    0.77725    1.04697   1.00
C3d      0.52442    0.79135    0.97364   1.00
C3       0.47677    0.83354    1.02567   1.00
O2       0.45713    0.85248    1.05513   1.00
C3       0.52346    0.83227    0.97252   1.00
H1       0.54133    0.84657    0.95081   1.00
C2       0.49988    0.85439    0.99845   1.00
C5       0.46009    0.72879    0.91264   1.00
H2       0.46176    0.69838    0.90121   1.00
H2       0.48932    0.74266    0.90896   1.00
C5       0.43018    0.75129    0.88860   1.00
H2       0.42770    0.78137    0.90071   1.00
H2       0.40119    0.73698    0.89219   1.00
C5       0.44198    0.75262    0.84527   1.00
H2       0.44477    0.72268    0.83306   1.00
H2       0.47027    0.76811    0.84151   1.00
C5       0.41073    0.77445    0.82149   1.00
C5       0.58224    0.76105    0.96064   1.00
C5       0.41850    0.86070    1.04319   1.00
H2       0.57912    0.74088    0.98587   1.00
H2       0.59926    0.78712    0.97016   1.00
H2       0.40256    0.83300    1.03695   1.00
H2       0.41739    0.87895    1.01614   1.00
H2       0.38114    0.94030    1.05629   1.00
H2       0.63129    0.69247    0.96235   1.00
H2       0.65912    0.73763    0.96201   1.00
C2       0.49977    0.64605    0.99733   1.00
C3       0.52489    0.66597    1.02320   1.00
O2       0.55579    0.64674    1.04041   1.00
C3       0.47383    0.66826    0.97412   1.00
H1       0.45353    0.65385    0.95477   1.00
C3a      0.52430    0.70713    1.02456   1.00
H1       0.54525    0.72202    1.04287   1.00
C3b      0.47418    0.70922    0.97464   1.00
C4       0.49959    0.72900    0.99992   1.00
O3       0.54551    0.77167    0.94537   1.00
C5       0.54669    0.63720    1.07941   1.00
H2       0.54014    0.66391    1.09690   1.00
C5       0.58231    0.61674    1.09648   1.00
H2       0.52103    0.61726    1.08084   1.00
H2       0.60419    0.63932    1.10470   1.00
H2       0.59571    0.59907    1.07271   1.00
C5       0.57238    0.59082    1.13180   1.00
H2       0.55629    0.60824    1.15391   1.00
C5       0.60977    0.57453    1.15063   1.00
H2       0.55438    0.56507    1.12298   1.00
C5       0.60463    0.74017    0.92836   1.00
H2       0.61359    0.76215    0.90615   1.00
H2       0.58432    0.71952    0.91359   1.00
C5       0.64033    0.71800    0.94424   1.00
C5       0.66499    0.70225    0.91016   1.00
H2       0.35609    0.94286    1.12045   1.00
C5       0.30262    0.93912    1.08514   1.00
H2       0.33433    0.89323    1.11689   1.00
C5       0.42667    0.78337    0.78044   1.00
H2       0.38351    0.75551    0.81893   1.00
H2       0.40302    0.80293    0.83682   1.00
C5       0.59953    0.55497    1.18976   1.00
H2       0.62356    0.55211    1.13031   1.00
H2       0.63124    0.59937    1.15594   1.00
H2       0.64531    0.68602    0.88882   1.00
H2       0.67976    0.72761    0.89452   1.00
C5       0.69626    0.67417    0.92602   1.00
H2       0.30729    0.95116    1.05450   1.00
H2       0.27901    0.91571    1.08437   1.00
H2       0.29315    0.96374    1.10540   1.00
H2       0.45599    0.76820    0.77640   1.00
H2       0.40522    0.77229    0.75757   1.00
H2       0.43061    0.81621    0.77698   1.00
H2       0.57057    0.53889    1.18687   1.00
H2       0.62345    0.53336    1.19794   1.00
H2       0.59701    0.57819    1.21343   1.00
H2       0.68448    0.64307    0.92558   1.00
H2       0.72347    0.67598    0.90699   1.00
H2       0.70398    0.68266    0.95723   1.00
C5       0.11782    0.57715    1.10061   1.00
H2       0.10255    0.59240    1.07645   1.00
H2       0.13910    0.59850    1.11252   1.00
C5       0.08806    0.56544    1.13216   1.00
C5       0.07877    0.60022    1.15903   1.00
H2       0.09985    0.54105    1.15008   1.00
O3       0.27000    0.45199    1.05206   1.00
C4       0.22900    0.50008    0.99959   1.00
C3c      0.20757    0.52621    1.02276   1.00
H1       0.22275    0.54697    1.04102   1.00
C3d      0.20865    0.47364    0.97558   1.00
C3       0.16646    0.52567    1.02323   1.00
O2       0.14752    0.55513    1.04287   1.00
C3       0.16773    0.47252    0.97654   1.00
H1       0.15343    0.45081    0.95867   1.00
C2       0.14561    0.49845    1.00012   1.00
C5       0.27121    0.41264    1.03991   1.00
H2       0.30162    0.40121    1.03824   1.00
H2       0.25734    0.40896    1.01068   1.00
C5       0.24871    0.38860    1.06982   1.00
H2       0.21863    0.40071    1.07230   1.00
H2       0.26302    0.39219    1.09881   1.00
C5       0.24738    0.34527    1.05802   1.00
H2       0.27732    0.33306    1.05523   1.00
H2       0.23189    0.34151    1.02973   1.00
C5       0.22555    0.32149    1.08927   1.00
C5       0.23895    0.46064    0.91776   1.00
C5       0.13930    0.54319    1.08150   1.00
H2       0.25912    0.48587    0.92088   1.00
H2       0.21288    0.47016    0.90074   1.00
H2       0.16700    0.53695    1.09744   1.00
H2       0.12105    0.51614    1.08261   1.00
H2       0.05970    0.55629    1.11886   1.00
H2       0.30753    0.46235    0.86871   1.00
H2       0.26237    0.46201    0.84088   1.00
C2       0.35395    0.49733    1.00023   1.00
C3       0.33403    0.52320    0.97511   1.00
O2       0.35326    0.54041    0.94421   1.00
C3       0.33174    0.47412    1.02617   1.00
H1       0.34615    0.45477    1.04647   1.00
C3a      0.29287    0.52456    0.97570   1.00
H1       0.27798    0.54287    0.95475   1.00
C3b      0.29078    0.47464    1.02582   1.00
C4       0.27100    0.49992    1.00041   1.00
O3       0.22833    0.44537    0.95449   1.00
C5       0.36280    0.57941    0.95331   1.00
H2       0.33609    0.59690    0.95986   1.00
C5       0.38326    0.59648    0.91769   1.00
H2       0.38274    0.58084    0.97897   1.00
H2       0.36068    0.60470    0.89581   1.00
H2       0.40093    0.57271    0.90429   1.00
C5       0.40918    0.63180    0.92762   1.00
H2       0.39176    0.65391    0.94371   1.00
C5       0.42547    0.65063    0.89023   1.00
H2       0.43493    0.62298    0.94562   1.00
C5       0.25983    0.42836    0.89537   1.00
H2       0.23785    0.40615    0.88641   1.00
H2       0.28048    0.41359    0.91568   1.00
C5       0.28200    0.44424    0.85967   1.00
C5       0.29775    0.41016    0.83501   1.00
H2       0.05714    0.62045    1.14391   1.00
C5       0.06088    0.58514    1.19738   1.00
H2       0.10677    0.61689    1.16567   1.00
C5       0.21663    0.28044    1.07333   1.00
H2       0.24449    0.31893    1.11649   1.00
H2       0.19707    0.33682    1.09698   1.00
C5       0.44503    0.68976    0.90047   1.00
H2       0.44789    0.63031    0.87644   1.00
H2       0.40063    0.65594    0.86876   1.00
H2       0.31398    0.38882    0.85469   1.00
H2       0.27239    0.39452    0.82024   1.00
C5       0.32583    0.42602    0.80374   1.00
H2       0.04884    0.55450    1.19271   1.00
H2       0.08429    0.58437    1.22099   1.00
H2       0.03626    0.60540    1.20685   1.00
H2       0.23180    0.27640    1.04401   1.00
H2       0.22771    0.25757    1.09478   1.00
H2       0.18379    0.27698    1.06939   1.00
H2       0.46111    0.68687    0.92943   1.00
H2       0.46664    0.69794    0.87655   1.00
H2       0.42181    0.71343    0.90299   1.00
H2       0.35693    0.42558    0.81552   1.00
H2       0.32402    0.40699    0.77653   1.00
H2       0.31734    0.45723    0.79602   1.00
C5       0.88218    0.57715    0.89939   1.00
H2       0.89745    0.59240    0.92355   1.00
H2       0.86090    0.59850    0.88748   1.00
C5       0.91194    0.56544    0.86784   1.00
C5       0.92123    0.60022    0.84097   1.00
H2       0.90015    0.54105    0.84992   1.00
O3       0.73000    0.45199    0.94794   1.00
C4       0.77100    0.50008    1.00041   1.00
C3c      0.79243    0.52621    0.97724   1.00
H1       0.77725    0.54697    0.95898   1.00
C3d      0.79135    0.47364    1.02442   1.00
C3       0.83354    0.52567    0.97677   1.00
O2       0.85248    0.55513    0.95713   1.00
C3       0.83227    0.47252    1.02346   1.00
H1       0.84657    0.45081    1.04133   1.00
C2       0.85439    0.49845    0.99988   1.00
C5       0.72879    0.41264    0.96009   1.00
H2       0.69838    0.40121    0.96176   1.00
H2       0.74266    0.40896    0.98932   1.00
C5       0.75129    0.38860    0.93018   1.00
H2       0.78137    0.40071    0.92770   1.00
H2       0.73698    0.39219    0.90119   1.00
C5       0.75262    0.34527    0.94198   1.00
H2       0.72268    0.33306    0.94477   1.00
H2       0.76811    0.34151    0.97027   1.00
C5       0.77445    0.32149    0.91073   1.00
C5       0.76105    0.46064    1.08224   1.00
C5       0.86070    0.54319    0.91850   1.00
H2       0.74088    0.48587    1.07912   1.00
H2       0.78712    0.47016    1.09926   1.00
H2       0.83300    0.53695    0.90256   1.00
H2       0.87895    0.51614    0.91739   1.00
H2       0.94030    0.55629    0.88114   1.00
H2       0.69247    0.46235    1.13129   1.00
H2       0.73763    0.46201    1.15912   1.00
C2       0.64605    0.49733    0.99977   1.00
C3       0.66597    0.52320    1.02489   1.00
O2       0.64674    0.54041    1.05579   1.00
C3       0.66826    0.47412    0.97383   1.00
H1       0.65385    0.45477    0.95353   1.00
C3a      0.70713    0.52456    1.02430   1.00
H1       0.72202    0.54287    1.04525   1.00
C3b      0.70922    0.47464    0.97418   1.00
C4       0.72900    0.49992    0.99959   1.00
O3       0.77167    0.44537    1.04551   1.00
C5       0.63720    0.57941    1.04669   1.00
H2       0.66391    0.59690    1.04014   1.00
C5       0.61674    0.59648    1.08231   1.00
H2       0.61726    0.58084    1.02103   1.00
H2       0.63932    0.60470    1.10419   1.00
H2       0.59907    0.57271    1.09571   1.00
C5       0.59082    0.63180    1.07238   1.00
H2       0.60824    0.65391    1.05629   1.00
C5       0.57453    0.65063    1.10977   1.00
H2       0.56507    0.62298    1.05438   1.00
C5       0.74017    0.42836    1.10463   1.00
H2       0.76215    0.40615    1.11359   1.00
H2       0.71952    0.41359    1.08432   1.00
C5       0.71800    0.44424    1.14033   1.00
C5       0.70225    0.41016    1.16499   1.00
H2       0.94286    0.62045    0.85609   1.00
C5       0.93912    0.58514    0.80262   1.00
H2       0.89323    0.61689    0.83433   1.00
C5       0.78337    0.28044    0.92667   1.00
H2       0.75551    0.31893    0.88351   1.00
H2       0.80293    0.33682    0.90302   1.00
C5       0.55497    0.68976    1.09953   1.00
H2       0.55211    0.63031    1.12356   1.00
H2       0.59937    0.65594    1.13124   1.00
H2       0.68602    0.38882    1.14531   1.00
H2       0.72761    0.39452    1.17976   1.00
C5       0.67417    0.42602    1.19626   1.00
H2       0.95116    0.55450    0.80729   1.00
H2       0.91571    0.58437    0.77901   1.00
H2       0.96374    0.60540    0.79315   1.00
H2       0.76820    0.27640    0.95599   1.00
H2       0.77229    0.25757    0.90522   1.00
H2       0.81621    0.27698    0.93061   1.00
H2       0.53889    0.68687    1.07057   1.00
H2       0.53336    0.69794    1.12345   1.00
H2       0.57819    0.71343    1.09701   1.00
H2       0.64307    0.42558    1.18448   1.00
H2       0.67598    0.40699    1.22347   1.00
H2       0.68266    0.45723    1.20398   1.00
C5       0.60061    0.11782    1.07715   1.00
H2       0.57645    0.10255    1.09240   1.00
H2       0.61252    0.13910    1.09850   1.00
C5       0.63216    0.08806    1.06544   1.00
C5       0.65903    0.07877    1.10022   1.00
H2       0.65008    0.09985    1.04105   1.00
O3       0.55206    0.27000    0.95199   1.00
C4       0.49959    0.22900    1.00008   1.00
C3c      0.52276    0.20757    1.02621   1.00
H1       0.54102    0.22275    1.04697   1.00
C3d      0.47558    0.20865    0.97364   1.00
C3       0.52323    0.16646    1.02567   1.00
O2       0.54287    0.14752    1.05513   1.00
C3       0.47654    0.16773    0.97252   1.00
H1       0.45867    0.15343    0.95081   1.00
C2       0.50012    0.14561    0.99845   1.00
C5       0.53991    0.27121    0.91264   1.00
H2       0.53824    0.30162    0.90121   1.00
H2       0.51068    0.25734    0.90896   1.00
C5       0.56982    0.24871    0.88860   1.00
H2       0.57230    0.21863    0.90071   1.00
H2       0.59881    0.26302    0.89219   1.00
C5       0.55802    0.24738    0.84527   1.00
H2       0.55523    0.27732    0.83306   1.00
H2       0.52973    0.23189    0.84151   1.00
C5       0.58927    0.22555    0.82149   1.00
C5       0.41776    0.23895    0.96064   1.00
C5       0.58150    0.13930    1.04319   1.00
H2       0.42088    0.25912    0.98587   1.00
H2       0.40074    0.21288    0.97016   1.00
H2       0.59744    0.16700    1.03695   1.00
H2       0.58261    0.12105    1.01614   1.00
H2       0.61886    0.05970    1.05629   1.00
H2       0.36871    0.30753    0.96235   1.00
H2       0.34088    0.26237    0.96201   1.00
C2       0.50023    0.35395    0.99733   1.00
C3       0.47511    0.33403    1.02320   1.00
O2       0.44421    0.35326    1.04041   1.00
C3       0.52617    0.33174    0.97412   1.00
H1       0.54647    0.34615    0.95477   1.00
C3a      0.47570    0.29287    1.02456   1.00
H1       0.45475    0.27798    1.04287   1.00
C3b      0.52582    0.29078    0.97464   1.00
C4       0.50041    0.27100    0.99992   1.00
O3       0.45449    0.22833    0.94537   1.00
C5       0.45331    0.36280    1.07941   1.00
H2       0.45986    0.33609    1.09690   1.00
C5       0.41769    0.38326    1.09648   1.00
H2       0.47897    0.38274    1.08084   1.00
H2       0.39581    0.36068    1.10470   1.00
H2       0.40429    0.40093    1.07271   1.00
C5       0.42762    0.40918    1.13180   1.00
H2       0.44371    0.39176    1.15391   1.00
C5       0.39023    0.42547    1.15063   1.00
H2       0.44562    0.43493    1.12298   1.00
C5       0.39537    0.25983    0.92836   1.00
H2       0.38641    0.23785    0.90615   1.00
H2       0.41568    0.28048    0.91359   1.00
C5       0.35967    0.28200    0.94424   1.00
C5       0.33501    0.29775    0.91016   1.00
H2       0.64391    0.05714    1.12045   1.00
C5       0.69738    0.06088    1.08514   1.00
H2       0.66567    0.10677    1.11689   1.00
C5       0.57333    0.21663    0.78044   1.00
H2       0.61649    0.24449    0.81893   1.00
H2       0.59698    0.19707    0.83682   1.00
C5       0.40047    0.44503    1.18976   1.00
H2       0.37644    0.44789    1.13031   1.00
H2       0.36876    0.40063    1.15594   1.00
H2       0.35469    0.31398    0.88882   1.00
H2       0.32024    0.27239    0.89452   1.00
C5       0.30374    0.32583    0.92602   1.00
H2       0.69271    0.04884    1.05450   1.00
H2       0.72099    0.08429    1.08437   1.00
H2       0.70685    0.03626    1.10540   1.00
H2       0.54401    0.23180    0.77640   1.00
H2       0.59478    0.22771    0.75757   1.00
H2       0.56939    0.18379    0.77698   1.00
H2       0.42943    0.46111    1.18687   1.00
H2       0.37655    0.46664    1.19794   1.00
H2       0.40299    0.42181    1.21343   1.00
H2       0.31552    0.35693    0.92558   1.00
H2       0.27653    0.32402    0.90699   1.00
H2       0.29602    0.31734    0.95723   1.00
C5       0.57715    0.60061    0.61782   1.00
H2       0.59240    0.57645    0.60255   1.00
H2       0.59850    0.61252    0.63910   1.00
C5       0.56544    0.63216    0.58806   1.00
C5       0.60022    0.65903    0.57877   1.00
H2       0.54105    0.65008    0.59985   1.00
O3       0.45199    0.55206    0.77000   1.00
C4       0.50008    0.49959    0.72900   1.00
C3c      0.52621    0.52276    0.70757   1.00
H1       0.54697    0.54102    0.72275   1.00
C3d      0.47364    0.47558    0.70865   1.00
C3       0.52567    0.52323    0.66646   1.00
O2       0.55513    0.54287    0.64752   1.00
C3       0.47252    0.47654    0.66773   1.00
H1       0.45081    0.45867    0.65343   1.00
C2       0.49845    0.50012    0.64561   1.00
C5       0.41264    0.53991    0.77121   1.00
H2       0.40121    0.53824    0.80162   1.00
H2       0.40896    0.51068    0.75734   1.00
C5       0.38860    0.56982    0.74871   1.00
H2       0.40071    0.57230    0.71863   1.00
H2       0.39219    0.59881    0.76302   1.00
C5       0.34527    0.55802    0.74738   1.00
H2       0.33306    0.55523    0.77732   1.00
H2       0.34151    0.52973    0.73189   1.00
C5       0.32149    0.58927    0.72555   1.00
C5       0.46064    0.41776    0.73895   1.00
C5       0.54319    0.58150    0.63930   1.00
H2       0.48587    0.42088    0.75912   1.00
H2       0.47016    0.40074    0.71288   1.00
H2       0.53695    0.59744    0.66700   1.00
H2       0.51614    0.58261    0.62105   1.00
H2       0.55629    0.61886    0.55970   1.00
H2       0.46235    0.36871    0.80753   1.00
H2       0.46201    0.34088    0.76237   1.00
C2       0.49733    0.50023    0.85395   1.00
C3       0.52320    0.47511    0.83403   1.00
O2       0.54041    0.44421    0.85326   1.00
C3       0.47412    0.52617    0.83174   1.00
H1       0.45477    0.54647    0.84615   1.00
C3a      0.52456    0.47570    0.79287   1.00
H1       0.54287    0.45475    0.77798   1.00
C3b      0.47464    0.52582    0.79078   1.00
C4       0.49992    0.50041    0.77100   1.00
O3       0.44537    0.45449    0.72833   1.00
C5       0.57941    0.45331    0.86280   1.00
H2       0.59690    0.45986    0.83609   1.00
C5       0.59648    0.41769    0.88326   1.00
H2       0.58084    0.47897    0.88274   1.00
H2       0.60470    0.39581    0.86068   1.00
H2       0.57271    0.40429    0.90093   1.00
C5       0.63180    0.42762    0.90918   1.00
H2       0.65391    0.44371    0.89176   1.00
C5       0.65063    0.39023    0.92547   1.00
H2       0.62298    0.44562    0.93493   1.00
C5       0.42836    0.39537    0.75983   1.00
H2       0.40615    0.38641    0.73785   1.00
H2       0.41359    0.41568    0.78048   1.00
C5       0.44424    0.35967    0.78200   1.00
C5       0.41016    0.33501    0.79775   1.00
H2       0.62045    0.64391    0.55714   1.00
C5       0.58514    0.69738    0.56088   1.00
H2       0.61689    0.66567    0.60677   1.00
C5       0.28044    0.57333    0.71663   1.00
H2       0.31893    0.61649    0.74449   1.00
H2       0.33682    0.59698    0.69707   1.00
C5       0.68976    0.40047    0.94503   1.00
H2       0.63031    0.37644    0.94789   1.00
H2       0.65594    0.36876    0.90063   1.00
H2       0.38882    0.35469    0.81398   1.00
H2       0.39452    0.32024    0.77239   1.00
C5       0.42602    0.30374    0.82583   1.00
H2       0.55450    0.69271    0.54884   1.00
H2       0.58437    0.72099    0.58429   1.00
H2       0.60540    0.70685    0.53626   1.00
H2       0.27640    0.54401    0.73180   1.00
H2       0.25757    0.59478    0.72771   1.00
H2       0.27698    0.56939    0.68379   1.00
H2       0.68687    0.42943    0.96111   1.00
H2       0.69794    0.37655    0.96664   1.00
H2       0.71343    0.40299    0.92181   1.00
H2       0.42558    0.31552    0.85693   1.00
H2       0.40699    0.27653    0.82402   1.00
H2       0.45723    0.29602    0.81734   1.00
C5       0.57715    0.89939    0.88218   1.00
H2       0.59240    0.92355    0.89745   1.00
H2       0.59850    0.88748    0.86090   1.00
C5       0.56544    0.86784    0.91194   1.00
C5       0.60022    0.84097    0.92123   1.00
H2       0.54105    0.84992    0.90015   1.00
O3       0.45199    0.94794    0.73000   1.00
C4       0.50008    1.00041    0.77100   1.00
C3c      0.52621    0.97724    0.79243   1.00
H1       0.54697    0.95898    0.77725   1.00
C3d      0.47364    1.02442    0.79135   1.00
C3       0.52567    0.97677    0.83354   1.00
O2       0.55513    0.95713    0.85248   1.00
C3       0.47252    1.02346    0.83227   1.00
H1       0.45081    1.04133    0.84657   1.00
C2       0.49845    0.99988    0.85439   1.00
C5       0.41264    0.96009    0.72879   1.00
H2       0.40121    0.96176    0.69838   1.00
H2       0.40896    0.98932    0.74266   1.00
C5       0.38860    0.93018    0.75129   1.00
H2       0.40071    0.92770    0.78137   1.00
H2       0.39219    0.90119    0.73698   1.00
C5       0.34527    0.94198    0.75262   1.00
H2       0.33306    0.94477    0.72268   1.00
H2       0.34151    0.97027    0.76811   1.00
C5       0.32149    0.91073    0.77445   1.00
C5       0.46064    1.08224    0.76105   1.00
C5       0.54319    0.91850    0.86070   1.00
H2       0.48587    1.07912    0.74088   1.00
H2       0.47016    1.09926    0.78712   1.00
H2       0.53695    0.90256    0.83300   1.00
H2       0.51614    0.91739    0.87895   1.00
H2       0.55629    0.88114    0.94030   1.00
H2       0.46235    1.13129    0.69247   1.00
H2       0.46201    1.15912    0.73763   1.00
C2       0.49733    0.99977    0.64605   1.00
C3       0.52320    1.02489    0.66597   1.00
O2       0.54041    1.05579    0.64674   1.00
C3       0.47412    0.97383    0.66826   1.00
H1       0.45477    0.95353    0.65385   1.00
C3a      0.52456    1.02430    0.70713   1.00
H1       0.54287    1.04525    0.72202   1.00
C3b      0.47464    0.97418    0.70922   1.00
C4       0.49992    0.99959    0.72900   1.00
O3       0.44537    1.04551    0.77167   1.00
C5       0.57941    1.04669    0.63720   1.00
H2       0.59690    1.04014    0.66391   1.00
C5       0.59648    1.08231    0.61674   1.00
H2       0.58084    1.02103    0.61726   1.00
H2       0.60470    1.10419    0.63932   1.00
H2       0.57271    1.09571    0.59907   1.00
C5       0.63180    1.07238    0.59082   1.00
H2       0.65391    1.05629    0.60824   1.00
C5       0.65063    1.10977    0.57453   1.00
H2       0.62298    1.05438    0.56507   1.00
C5       0.42836    1.10463    0.74017   1.00
H2       0.40615    1.11359    0.76215   1.00
H2       0.41359    1.08432    0.71952   1.00
C5       0.44424    1.14033    0.71800   1.00
C5       0.41016    1.16499    0.70225   1.00
H2       0.62045    0.85609    0.94286   1.00
C5       0.58514    0.80262    0.93912   1.00
H2       0.61689    0.83433    0.89323   1.00
C5       0.28044    0.92667    0.78337   1.00
H2       0.31893    0.88351    0.75551   1.00
H2       0.33682    0.90302    0.80293   1.00
C5       0.68976    1.09953    0.55497   1.00
H2       0.63031    1.12356    0.55211   1.00
H2       0.65594    1.13124    0.59937   1.00
H2       0.38882    1.14531    0.68602   1.00
H2       0.39452    1.17976    0.72761   1.00
C5       0.42602    1.19626    0.67417   1.00
H2       0.55450    0.80729    0.95116   1.00
H2       0.58437    0.77901    0.91571   1.00
H2       0.60540    0.79315    0.96374   1.00
H2       0.27640    0.95599    0.76820   1.00
H2       0.25757    0.90522    0.77229   1.00
H2       0.27698    0.93061    0.81621   1.00
H2       0.68687    1.07057    0.53889   1.00
H2       0.69794    1.12345    0.53336   1.00
H2       0.71343    1.09701    0.57819   1.00
H2       0.42558    1.18448    0.64307   1.00
H2       0.40699    1.22347    0.67598   1.00
H2       0.45723    1.20398    0.68266   1.00
C5       0.39939    1.38218    0.57715   1.00
H2       0.42355    1.39745    0.59240   1.00
H2       0.38748    1.36090    0.59850   1.00
C5       0.36784    1.41194    0.56544   1.00
C5       0.34097    1.42123    0.60022   1.00
H2       0.34992    1.40015    0.54105   1.00
O3       0.44794    1.23000    0.45199   1.00
C4       0.50041    1.27100    0.50008   1.00
C3c      0.47724    1.29243    0.52621   1.00
H1       0.45898    1.27725    0.54697   1.00
C3d      0.52442    1.29135    0.47364   1.00
C3       0.47677    1.33354    0.52567   1.00
O2       0.45713    1.35248    0.55513   1.00
C3       0.52346    1.33227    0.47252   1.00
H1       0.54133    1.34657    0.45081   1.00
C2       0.49988    1.35439    0.49845   1.00
C5       0.46009    1.22879    0.41264   1.00
H2       0.46176    1.19838    0.40121   1.00
H2       0.48932    1.24266    0.40896   1.00
C5       0.43018    1.25129    0.38860   1.00
H2       0.42770    1.28137    0.40071   1.00
H2       0.40119    1.23698    0.39219   1.00
C5       0.44198    1.25262    0.34527   1.00
H2       0.44477    1.22268    0.33306   1.00
H2       0.47027    1.26811    0.34151   1.00
C5       0.41073    1.27445    0.32149   1.00
C5       0.58224    1.26105    0.46064   1.00
C5       0.41850    1.36070    0.54319   1.00
H2       0.57912    1.24088    0.48587   1.00
H2       0.59926    1.28712    0.47016   1.00
H2       0.40256    1.33300    0.53695   1.00
H2       0.41739    1.37895    0.51614   1.00
H2       0.38114    1.44030    0.55629   1.00
H2       0.63129    1.19247    0.46235   1.00
H2       0.65912    1.23763    0.46201   1.00
C2       0.49977    1.14605    0.49733   1.00
C3       0.52489    1.16597    0.52320   1.00
O2       0.55579    1.14674    0.54041   1.00
C3       0.47383    1.16826    0.47412   1.00
H1       0.45353    1.15385    0.45477   1.00
C3a      0.52430    1.20713    0.52456   1.00
H1       0.54525    1.22202    0.54287   1.00
C3b      0.47418    1.20922    0.47464   1.00
C4       0.49959    1.22900    0.49992   1.00
O3       0.54551    1.27167    0.44537   1.00
C5       0.54669    1.13720    0.57941   1.00
H2       0.54014    1.16391    0.59690   1.00
C5       0.58231    1.11674    0.59648   1.00
H2       0.52103    1.11726    0.58084   1.00
H2       0.60419    1.13932    0.60470   1.00
H2       0.59571    1.09907    0.57271   1.00
C5       0.57238    1.09082    0.63180   1.00
H2       0.55629    1.10824    0.65391   1.00
C5       0.60977    1.07453    0.65063   1.00
H2       0.55438    1.06507    0.62298   1.00
C5       0.60463    1.24017    0.42836   1.00
H2       0.61359    1.26215    0.40615   1.00
H2       0.58432    1.21952    0.41359   1.00
C5       0.64033    1.21800    0.44424   1.00
C5       0.66499    1.20225    0.41016   1.00
H2       0.35609    1.44286    0.62045   1.00
C5       0.30262    1.43912    0.58514   1.00
H2       0.33433    1.39323    0.61689   1.00
C5       0.42667    1.28337    0.28044   1.00
H2       0.38351    1.25551    0.31893   1.00
H2       0.40302    1.30293    0.33682   1.00
C5       0.59953    1.05497    0.68976   1.00
H2       0.62356    1.05211    0.63031   1.00
H2       0.63124    1.09937    0.65594   1.00
H2       0.64531    1.18602    0.38882   1.00
H2       0.67976    1.22761    0.39452   1.00
C5       0.69626    1.17417    0.42602   1.00
H2       0.30729    1.45116    0.55450   1.00
H2       0.27901    1.41571    0.58437   1.00
H2       0.29315    1.46374    0.60540   1.00
H2       0.45599    1.26820    0.27640   1.00
H2       0.40522    1.27229    0.25757   1.00
H2       0.43061    1.31621    0.27698   1.00
H2       0.57057    1.03889    0.68687   1.00
H2       0.62345    1.03336    0.69794   1.00
H2       0.59701    1.07819    0.71343   1.00
H2       0.68448    1.14307    0.42558   1.00
H2       0.72347    1.17598    0.40699   1.00
H2       0.70398    1.18266    0.45723   1.00
C5       0.11782    1.07715    0.60061   1.00
H2       0.10255    1.09240    0.57645   1.00
H2       0.13910    1.09850    0.61252   1.00
C5       0.08806    1.06544    0.63216   1.00
C5       0.07877    1.10022    0.65903   1.00
H2       0.09985    1.04105    0.65008   1.00
O3       0.27000    0.95199    0.55206   1.00
C4       0.22900    1.00008    0.49959   1.00
C3c      0.20757    1.02621    0.52276   1.00
H1       0.22275    1.04697    0.54102   1.00
C3d      0.20865    0.97364    0.47558   1.00
C3       0.16646    1.02567    0.52323   1.00
O2       0.14752    1.05513    0.54287   1.00
C3       0.16773    0.97252    0.47654   1.00
H1       0.15343    0.95081    0.45867   1.00
C2       0.14561    0.99845    0.50012   1.00
C5       0.27121    0.91264    0.53991   1.00
H2       0.30162    0.90121    0.53824   1.00
H2       0.25734    0.90896    0.51068   1.00
C5       0.24871    0.88860    0.56982   1.00
H2       0.21863    0.90071    0.57230   1.00
H2       0.26302    0.89219    0.59881   1.00
C5       0.24738    0.84527    0.55802   1.00
H2       0.27732    0.83306    0.55523   1.00
H2       0.23189    0.84151    0.52973   1.00
C5       0.22555    0.82149    0.58927   1.00
C5       0.23895    0.96064    0.41776   1.00
C5       0.13930    1.04319    0.58150   1.00
H2       0.25912    0.98587    0.42088   1.00
H2       0.21288    0.97016    0.40074   1.00
H2       0.16700    1.03695    0.59744   1.00
H2       0.12105    1.01614    0.58261   1.00
H2       0.05970    1.05629    0.61886   1.00
H2       0.30753    0.96235    0.36871   1.00
H2       0.26237    0.96201    0.34088   1.00
C2       0.35395    0.99733    0.50023   1.00
C3       0.33403    1.02320    0.47511   1.00
O2       0.35326    1.04041    0.44421   1.00
C3       0.33174    0.97412    0.52617   1.00
H1       0.34615    0.95477    0.54647   1.00
C3a      0.29287    1.02456    0.47570   1.00
H1       0.27798    1.04287    0.45475   1.00
C3b      0.29078    0.97464    0.52582   1.00
C4       0.27100    0.99992    0.50041   1.00
O3       0.22833    0.94537    0.45449   1.00
C5       0.36280    1.07941    0.45331   1.00
H2       0.33609    1.09690    0.45986   1.00
C5       0.38326    1.09648    0.41769   1.00
H2       0.38274    1.08084    0.47897   1.00
H2       0.36068    1.10470    0.39581   1.00
H2       0.40093    1.07271    0.40429   1.00
C5       0.40918    1.13180    0.42762   1.00
H2       0.39176    1.15391    0.44371   1.00
C5       0.42547    1.15063    0.39023   1.00
H2       0.43493    1.12298    0.44562   1.00
C5       0.25983    0.92836    0.39537   1.00
H2       0.23785    0.90615    0.38641   1.00
H2       0.28048    0.91359    0.41568   1.00
C5       0.28200    0.94424    0.35967   1.00
C5       0.29775    0.91016    0.33501   1.00
H2       0.05714    1.12045    0.64391   1.00
C5       0.06088    1.08514    0.69738   1.00
H2       0.10677    1.11689    0.66567   1.00
C5       0.21663    0.78044    0.57333   1.00
H2       0.24449    0.81893    0.61649   1.00
H2       0.19707    0.83682    0.59698   1.00
C5       0.44503    1.18976    0.40047   1.00
H2       0.44789    1.13031    0.37644   1.00
H2       0.40063    1.15594    0.36876   1.00
H2       0.31398    0.88882    0.35469   1.00
H2       0.27239    0.89452    0.32024   1.00
C5       0.32583    0.92602    0.30374   1.00
H2       0.04884    1.05450    0.69271   1.00
H2       0.08429    1.08437    0.72099   1.00
H2       0.03626    1.10540    0.70685   1.00
H2       0.23180    0.77640    0.54401   1.00
H2       0.22771    0.75757    0.59478   1.00
H2       0.18379    0.77698    0.56939   1.00
H2       0.46111    1.18687    0.42943   1.00
H2       0.46664    1.19794    0.37655   1.00
H2       0.42181    1.21343    0.40299   1.00
H2       0.35693    0.92558    0.31552   1.00
H2       0.32402    0.90699    0.27653   1.00
H2       0.31734    0.95723    0.29602   1.00
C5       0.88218    1.07715    0.39939   1.00
H2       0.89745    1.09240    0.42355   1.00
H2       0.86090    1.09850    0.38748   1.00
C5       0.91194    1.06544    0.36784   1.00
C5       0.92123    1.10022    0.34097   1.00
H2       0.90015    1.04105    0.34992   1.00
O3       0.73000    0.95199    0.44794   1.00
C4       0.77100    1.00008    0.50041   1.00
C3c      0.79243    1.02621    0.47724   1.00
H1       0.77725    1.04697    0.45898   1.00
C3d      0.79135    0.97364    0.52442   1.00
C3       0.83354    1.02567    0.47677   1.00
O2       0.85248    1.05513    0.45713   1.00
C3       0.83227    0.97252    0.52346   1.00
H1       0.84657    0.95081    0.54133   1.00
C2       0.85439    0.99845    0.49988   1.00
C5       0.72879    0.91264    0.46009   1.00
H2       0.69838    0.90121    0.46176   1.00
H2       0.74266    0.90896    0.48932   1.00
C5       0.75129    0.88860    0.43018   1.00
H2       0.78137    0.90071    0.42770   1.00
H2       0.73698    0.89219    0.40119   1.00
C5       0.75262    0.84527    0.44198   1.00
H2       0.72268    0.83306    0.44477   1.00
H2       0.76811    0.84151    0.47027   1.00
C5       0.77445    0.82149    0.41073   1.00
C5       0.76105    0.96064    0.58224   1.00
C5       0.86070    1.04319    0.41850   1.00
H2       0.74088    0.98587    0.57912   1.00
H2       0.78712    0.97016    0.59926   1.00
H2       0.83300    1.03695    0.40256   1.00
H2       0.87895    1.01614    0.41739   1.00
H2       0.94030    1.05629    0.38114   1.00
H2       0.69247    0.96235    0.63129   1.00
H2       0.73763    0.96201    0.65912   1.00
C2       0.64605    0.99733    0.49977   1.00
C3       0.66597    1.02320    0.52489   1.00
O2       0.64674    1.04041    0.55579   1.00
C3       0.66826    0.97412    0.47383   1.00
H1       0.65385    0.95477    0.45353   1.00
C3a      0.70713    1.02456    0.52430   1.00
H1       0.72202    1.04287    0.54525   1.00
C3b      0.70922    0.97464    0.47418   1.00
C4       0.72900    0.99992    0.49959   1.00
O3       0.77167    0.94537    0.54551   1.00
C5       0.63720    1.07941    0.54669   1.00
H2       0.66391    1.09690    0.54014   1.00
C5       0.61674    1.09648    0.58231   1.00
H2       0.61726    1.08084    0.52103   1.00
H2       0.63932    1.10470    0.60419   1.00
H2       0.59907    1.07271    0.59571   1.00
C5       0.59082    1.13180    0.57238   1.00
H2       0.60824    1.15391    0.55629   1.00
C5       0.57453    1.15063    0.60977   1.00
H2       0.56507    1.12298    0.55438   1.00
C5       0.74017    0.92836    0.60463   1.00
H2       0.76215    0.90615    0.61359   1.00
H2       0.71952    0.91359    0.58432   1.00
C5       0.71800    0.94424    0.64033   1.00
C5       0.70225    0.91016    0.66499   1.00
H2       0.94286    1.12045    0.35609   1.00
C5       0.93912    1.08514    0.30262   1.00
H2       0.89323    1.11689    0.33433   1.00
C5       0.78337    0.78044    0.42667   1.00
H2       0.75551    0.81893    0.38351   1.00
H2       0.80293    0.83682    0.40302   1.00
C5       0.55497    1.18976    0.59953   1.00
H2       0.55211    1.13031    0.62356   1.00
H2       0.59937    1.15594    0.63124   1.00
H2       0.68602    0.88882    0.64531   1.00
H2       0.72761    0.89452    0.67976   1.00
C5       0.67417    0.92602    0.69626   1.00
H2       0.95116    1.05450    0.30729   1.00
H2       0.91571    1.08437    0.27901   1.00
H2       0.96374    1.10540    0.29315   1.00
H2       0.76820    0.77640    0.45599   1.00
H2       0.77229    0.75757    0.40522   1.00
H2       0.81621    0.77698    0.43061   1.00
H2       0.53889    1.18687    0.57057   1.00
H2       0.53336    1.19794    0.62345   1.00
H2       0.57819    1.21343    0.59701   1.00
H2       0.64307    0.92558    0.68448   1.00
H2       0.67598    0.90699    0.72347   1.00
H2       0.68266    0.95723    0.70398   1.00
C5       0.60061    0.61782    0.57715   1.00
H2       0.57645    0.60255    0.59240   1.00
H2       0.61252    0.63910    0.59850   1.00
C5       0.63216    0.58806    0.56544   1.00
C5       0.65903    0.57877    0.60022   1.00
H2       0.65008    0.59985    0.54105   1.00
O3       0.55206    0.77000    0.45199   1.00
C4       0.49959    0.72900    0.50008   1.00
C3c      0.52276    0.70757    0.52621   1.00
H1       0.54102    0.72275    0.54697   1.00
C3d      0.47558    0.70865    0.47364   1.00
C3       0.52323    0.66646    0.52567   1.00
O2       0.54287    0.64752    0.55513   1.00
C3       0.47654    0.66773    0.47252   1.00
H1       0.45867    0.65343    0.45081   1.00
C2       0.50012    0.64561    0.49845   1.00
C5       0.53991    0.77121    0.41264   1.00
H2       0.53824    0.80162    0.40121   1.00
H2       0.51068    0.75734    0.40896   1.00
C5       0.56982    0.74871    0.38860   1.00
H2       0.57230    0.71863    0.40071   1.00
H2       0.59881    0.76302    0.39219   1.00
C5       0.55802    0.74738    0.34527   1.00
H2       0.55523    0.77732    0.33306   1.00
H2       0.52973    0.73189    0.34151   1.00
C5       0.58927    0.72555    0.32149   1.00
C5       0.41776    0.73895    0.46064   1.00
C5       0.58150    0.63930    0.54319   1.00
H2       0.42088    0.75912    0.48587   1.00
H2       0.40074    0.71288    0.47016   1.00
H2       0.59744    0.66700    0.53695   1.00
H2       0.58261    0.62105    0.51614   1.00
H2       0.61886    0.55970    0.55629   1.00
H2       0.36871    0.80753    0.46235   1.00
H2       0.34088    0.76237    0.46201   1.00
C2       0.50023    0.85395    0.49733   1.00
C3       0.47511    0.83403    0.52320   1.00
O2       0.44421    0.85326    0.54041   1.00
C3       0.52617    0.83174    0.47412   1.00
H1       0.54647    0.84615    0.45477   1.00
C3a      0.47570    0.79287    0.52456   1.00
H1       0.45475    0.77798    0.54287   1.00
C3b      0.52582    0.79078    0.47464   1.00
C4       0.50041    0.77100    0.49992   1.00
O3       0.45449    0.72833    0.44537   1.00
C5       0.45331    0.86280    0.57941   1.00
H2       0.45986    0.83609    0.59690   1.00
C5       0.41769    0.88326    0.59648   1.00
H2       0.47897    0.88274    0.58084   1.00
H2       0.39581    0.86068    0.60470   1.00
H2       0.40429    0.90093    0.57271   1.00
C5       0.42762    0.90918    0.63180   1.00
H2       0.44371    0.89176    0.65391   1.00
C5       0.39023    0.92547    0.65063   1.00
H2       0.44562    0.93493    0.62298   1.00
C5       0.39537    0.75983    0.42836   1.00
H2       0.38641    0.73785    0.40615   1.00
H2       0.41568    0.78048    0.41359   1.00
C5       0.35967    0.78200    0.44424   1.00
C5       0.33501    0.79775    0.41016   1.00
H2       0.64391    0.55714    0.62045   1.00
C5       0.69738    0.56088    0.58514   1.00
H2       0.66567    0.60677    0.61689   1.00
C5       0.57333    0.71663    0.28044   1.00
H2       0.61649    0.74449    0.31893   1.00
H2       0.59698    0.69707    0.33682   1.00
C5       0.40047    0.94503    0.68976   1.00
H2       0.37644    0.94789    0.63031   1.00
H2       0.36876    0.90063    0.65594   1.00
H2       0.35469    0.81398    0.38882   1.00
H2       0.32024    0.77239    0.39452   1.00
C5       0.30374    0.82583    0.42602   1.00
H2       0.69271    0.54884    0.55450   1.00
H2       0.72099    0.58429    0.58437   1.00
H2       0.70685    0.53626    0.60540   1.00
H2       0.54401    0.73180    0.27640   1.00
H2       0.59478    0.72771    0.25757   1.00
H2       0.56939    0.68379    0.27698   1.00
H2       0.42943    0.96111    0.68687   1.00
H2       0.37655    0.96664    0.69794   1.00
H2       0.40299    0.92181    0.71343   1.00
H2       0.31552    0.85693    0.42558   1.00
H2       0.27653    0.82402    0.40699   1.00
H2       0.29602    0.81734    0.45723   1.00
C5       0.57715    1.10061    0.11782   1.00
H2       0.59240    1.07645    0.10255   1.00
H2       0.59850    1.11252    0.13910   1.00
C5       0.56544    1.13216    0.08806   1.00
C5       0.60022    1.15903    0.07877   1.00
H2       0.54105    1.15008    0.09985   1.00
O3       0.45199    1.05206    0.27000   1.00
C4       0.50008    0.99959    0.22900   1.00
C3c      0.52621    1.02276    0.20757   1.00
H1       0.54697    1.04102    0.22275   1.00
C3d      0.47364    0.97558    0.20865   1.00
C3       0.52567    1.02323    0.16646   1.00
O2       0.55513    1.04287    0.14752   1.00
C3       0.47252    0.97654    0.16773   1.00
H1       0.45081    0.95867    0.15343   1.00
C2       0.49845    1.00012    0.14561   1.00
C5       0.41264    1.03991    0.27121   1.00
H2       0.40121    1.03824    0.30162   1.00
H2       0.40896    1.01068    0.25734   1.00
C5       0.38860    1.06982    0.24871   1.00
H2       0.40071    1.07230    0.21863   1.00
H2       0.39219    1.09881    0.26302   1.00
C5       0.34527    1.05802    0.24738   1.00
H2       0.33306    1.05523    0.27732   1.00
H2       0.34151    1.02973    0.23189   1.00
C5       0.32149    1.08927    0.22555   1.00
C5       0.46064    0.91776    0.23895   1.00
C5       0.54319    1.08150    0.13930   1.00
H2       0.48587    0.92088    0.25912   1.00
H2       0.47016    0.90074    0.21288   1.00
H2       0.53695    1.09744    0.16700   1.00
H2       0.51614    1.08261    0.12105   1.00
H2       0.55629    1.11886    0.05970   1.00
H2       0.46235    0.86871    0.30753   1.00
H2       0.46201    0.84088    0.26237   1.00
C2       0.49733    1.00023    0.35395   1.00
C3       0.52320    0.97511    0.33403   1.00
O2       0.54041    0.94421    0.35326   1.00
C3       0.47412    1.02617    0.33174   1.00
H1       0.45477    1.04647    0.34615   1.00
C3a      0.52456    0.97570    0.29287   1.00
H1       0.54287    0.95475    0.27798   1.00
C3b      0.47464    1.02582    0.29078   1.00
C4       0.49992    1.00041    0.27100   1.00
O3       0.44537    0.95449    0.22833   1.00
C5       0.57941    0.95331    0.36280   1.00
H2       0.59690    0.95986    0.33609   1.00
C5       0.59648    0.91769    0.38326   1.00
H2       0.58084    0.97897    0.38274   1.00
H2       0.60470    0.89581    0.36068   1.00
H2       0.57271    0.90429    0.40093   1.00
C5       0.63180    0.92762    0.40918   1.00
H2       0.65391    0.94371    0.39176   1.00
C5       0.65063    0.89023    0.42547   1.00
H2       0.62298    0.94562    0.43493   1.00
C5       0.42836    0.89537    0.25983   1.00
H2       0.40615    0.88641    0.23785   1.00
H2       0.41359    0.91568    0.28048   1.00
C5       0.44424    0.85967    0.28200   1.00
C5       0.41016    0.83501    0.29775   1.00
H2       0.62045    1.14391    0.05714   1.00
C5       0.58514    1.19738    0.06088   1.00
H2       0.61689    1.16567    0.10677   1.00
C5       0.28044    1.07333    0.21663   1.00
H2       0.31893    1.11649    0.24449   1.00
H2       0.33682    1.09698    0.19707   1.00
C5       0.68976    0.90047    0.44503   1.00
H2       0.63031    0.87644    0.44789   1.00
H2       0.65594    0.86876    0.40063   1.00
H2       0.38882    0.85469    0.31398   1.00
H2       0.39452    0.82024    0.27239   1.00
C5       0.42602    0.80374    0.32583   1.00
H2       0.55450    1.19271    0.04884   1.00
H2       0.58437    1.22099    0.08429   1.00
H2       0.60540    1.20685    0.03626   1.00
H2       0.27640    1.04401    0.23180   1.00
H2       0.25757    1.09478    0.22771   1.00
H2       0.27698    1.06939    0.18379   1.00
H2       0.68687    0.92943    0.46111   1.00
H2       0.69794    0.87655    0.46664   1.00
H2       0.71343    0.90299    0.42181   1.00
H2       0.42558    0.81552    0.35693   1.00
H2       0.40699    0.77653    0.32402   1.00
H2       0.45723    0.79602    0.31734   1.00
C5       1.07715    0.39939    0.88218   1.00
H2       1.09240    0.42355    0.89745   1.00
H2       1.09850    0.38748    0.86090   1.00
C5       1.06544    0.36784    0.91194   1.00
C5       1.10022    0.34097    0.92123   1.00
H2       1.04105    0.34992    0.90015   1.00
O3       0.95199    0.44794    0.73000   1.00
C4       1.00008    0.50041    0.77100   1.00
C3c      1.02621    0.47724    0.79243   1.00
H1       1.04697    0.45898    0.77725   1.00
C3d      0.97364    0.52442    0.79135   1.00
C3       1.02567    0.47677    0.83354   1.00
O2       1.05513    0.45713    0.85248   1.00
C3       0.97252    0.52346    0.83227   1.00
H1       0.95081    0.54133    0.84657   1.00
C2       0.99845    0.49988    0.85439   1.00
C5       0.91264    0.46009    0.72879   1.00
H2       0.90121    0.46176    0.69838   1.00
H2       0.90896    0.48932    0.74266   1.00
C5       0.88860    0.43018    0.75129   1.00
H2       0.90071    0.42770    0.78137   1.00
H2       0.89219    0.40119    0.73698   1.00
C5       0.84527    0.44198    0.75262   1.00
H2       0.83306    0.44477    0.72268   1.00
H2       0.84151    0.47027    0.76811   1.00
C5       0.82149    0.41073    0.77445   1.00
C5       0.96064    0.58224    0.76105   1.00
C5       1.04319    0.41850    0.86070   1.00
H2       0.98587    0.57912    0.74088   1.00
H2       0.97016    0.59926    0.78712   1.00
H2       1.03695    0.40256    0.83300   1.00
H2       1.01614    0.41739    0.87895   1.00
H2       1.05629    0.38114    0.94030   1.00
H2       0.96235    0.63129    0.69247   1.00
H2       0.96201    0.65912    0.73763   1.00
C2       0.99733    0.49977    0.64605   1.00
C3       1.02320    0.52489    0.66597   1.00
O2       1.04041    0.55579    0.64674   1.00
C3       0.97412    0.47383    0.66826   1.00
H1       0.95477    0.45353    0.65385   1.00
C3a      1.02456    0.52430    0.70713   1.00
H1       1.04287    0.54525    0.72202   1.00
C3b      0.97464    0.47418    0.70922   1.00
C4       0.99992    0.49959    0.72900   1.00
O3       0.94537    0.54551    0.77167   1.00
C5       1.07941    0.54669    0.63720   1.00
H2       1.09690    0.54014    0.66391   1.00
C5       1.09648    0.58231    0.61674   1.00
H2       1.08084    0.52103    0.61726   1.00
H2       1.10470    0.60419    0.63932   1.00
H2       1.07271    0.59571    0.59907   1.00
C5       1.13180    0.57238    0.59082   1.00
H2       1.15391    0.55629    0.60824   1.00
C5       1.15063    0.60977    0.57453   1.00
H2       1.12298    0.55438    0.56507   1.00
C5       0.92836    0.60463    0.74017   1.00
H2       0.90615    0.61359    0.76215   1.00
H2       0.91359    0.58432    0.71952   1.00
C5       0.94424    0.64033    0.71800   1.00
C5       0.91016    0.66499    0.70225   1.00
H2       1.12045    0.35609    0.94286   1.00
C5       1.08514    0.30262    0.93912   1.00
H2       1.11689    0.33433    0.89323   1.00
C5       0.78044    0.42667    0.78337   1.00
H2       0.81893    0.38351    0.75551   1.00
H2       0.83682    0.40302    0.80293   1.00
C5       1.18976    0.59953    0.55497   1.00
H2       1.13031    0.62356    0.55211   1.00
H2       1.15594    0.63124    0.59937   1.00
H2       0.88882    0.64531    0.68602   1.00
H2       0.89452    0.67976    0.72761   1.00
C5       0.92602    0.69626    0.67417   1.00
H2       1.05450    0.30729    0.95116   1.00
H2       1.08437    0.27901    0.91571   1.00
H2       1.10540    0.29315    0.96374   1.00
H2       0.77640    0.45599    0.76820   1.00
H2       0.75757    0.40522    0.77229   1.00
H2       0.77698    0.43061    0.81621   1.00
H2       1.18687    0.57057    0.53889   1.00
H2       1.19794    0.62345    0.53336   1.00
H2       1.21343    0.59701    0.57819   1.00
H2       0.92558    0.68448    0.64307   1.00
H2       0.90699    0.72347    0.67598   1.00
H2       0.95723    0.70398    0.68266   1.00
C5       0.89939    0.88218    0.57715   1.00
H2       0.92355    0.89745    0.59240   1.00
H2       0.88748    0.86090    0.59850   1.00
C5       0.86784    0.91194    0.56544   1.00
C5       0.84097    0.92123    0.60022   1.00
H2       0.84992    0.90015    0.54105   1.00
O3       0.94794    0.73000    0.45199   1.00
C4       1.00041    0.77100    0.50008   1.00
C3c      0.97724    0.79243    0.52621   1.00
H1       0.95898    0.77725    0.54697   1.00
C3d      1.02442    0.79135    0.47364   1.00
C3       0.97677    0.83354    0.52567   1.00
O2       0.95713    0.85248    0.55513   1.00
C3       1.02346    0.83227    0.47252   1.00
H1       1.04133    0.84657    0.45081   1.00
C2       0.99988    0.85439    0.49845   1.00
C5       0.96009    0.72879    0.41264   1.00
H2       0.96176    0.69838    0.40121   1.00
H2       0.98932    0.74266    0.40896   1.00
C5       0.93018    0.75129    0.38860   1.00
H2       0.92770    0.78137    0.40071   1.00
H2       0.90119    0.73698    0.39219   1.00
C5       0.94198    0.75262    0.34527   1.00
H2       0.94477    0.72268    0.33306   1.00
H2       0.97027    0.76811    0.34151   1.00
C5       0.91073    0.77445    0.32149   1.00
C5       1.08224    0.76105    0.46064   1.00
C5       0.91850    0.86070    0.54319   1.00
H2       1.07912    0.74088    0.48587   1.00
H2       1.09926    0.78712    0.47016   1.00
H2       0.90256    0.83300    0.53695   1.00
H2       0.91739    0.87895    0.51614   1.00
H2       0.88114    0.94030    0.55629   1.00
H2       1.13129    0.69247    0.46235   1.00
H2       1.15912    0.73763    0.46201   1.00
C2       0.99977    0.64605    0.49733   1.00
C3       1.02489    0.66597    0.52320   1.00
O2       1.05579    0.64674    0.54041   1.00
C3       0.97383    0.66826    0.47412   1.00
H1       0.95353    0.65385    0.45477   1.00
C3a      1.02430    0.70713    0.52456   1.00
H1       1.04525    0.72202    0.54287   1.00
C3b      0.97418    0.70922    0.47464   1.00
C4       0.99959    0.72900    0.49992   1.00
O3       1.04551    0.77167    0.44537   1.00
C5       1.04669    0.63720    0.57941   1.00
H2       1.04014    0.66391    0.59690   1.00
C5       1.08231    0.61674    0.59648   1.00
H2       1.02103    0.61726    0.58084   1.00
H2       1.10419    0.63932    0.60470   1.00
H2       1.09571    0.59907    0.57271   1.00
C5       1.07238    0.59082    0.63180   1.00
H2       1.05629    0.60824    0.65391   1.00
C5       1.10977    0.57453    0.65063   1.00
H2       1.05438    0.56507    0.62298   1.00
C5       1.10463    0.74017    0.42836   1.00
H2       1.11359    0.76215    0.40615   1.00
H2       1.08432    0.71952    0.41359   1.00
C5       1.14033    0.71800    0.44424   1.00
C5       1.16499    0.70225    0.41016   1.00
H2       0.85609    0.94286    0.62045   1.00
C5       0.80262    0.93912    0.58514   1.00
H2       0.83433    0.89323    0.61689   1.00
C5       0.92667    0.78337    0.28044   1.00
H2       0.88351    0.75551    0.31893   1.00
H2       0.90302    0.80293    0.33682   1.00
C5       1.09953    0.55497    0.68976   1.00
H2       1.12356    0.55211    0.63031   1.00
H2       1.13124    0.59937    0.65594   1.00
H2       1.14531    0.68602    0.38882   1.00
H2       1.17976    0.72761    0.39452   1.00
C5       1.19626    0.67417    0.42602   1.00
H2       0.80729    0.95116    0.55450   1.00
H2       0.77901    0.91571    0.58437   1.00
H2       0.79315    0.96374    0.60540   1.00
H2       0.95599    0.76820    0.27640   1.00
H2       0.90522    0.77229    0.25757   1.00
H2       0.93061    0.81621    0.27698   1.00
H2       1.07057    0.53889    0.68687   1.00
H2       1.12345    0.53336    0.69794   1.00
H2       1.09701    0.57819    0.71343   1.00
H2       1.18448    0.64307    0.42558   1.00
H2       1.22347    0.67598    0.40699   1.00
H2       1.20398    0.68266    0.45723   1.00
C5       0.61782    0.57715    0.60061   1.00
H2       0.60255    0.59240    0.57645   1.00
H2       0.63910    0.59850    0.61252   1.00
C5       0.58806    0.56544    0.63216   1.00
C5       0.57877    0.60022    0.65903   1.00
H2       0.59985    0.54105    0.65008   1.00
O3       0.77000    0.45199    0.55206   1.00
C4       0.72900    0.50008    0.49959   1.00
C3c      0.70757    0.52621    0.52276   1.00
H1       0.72275    0.54697    0.54102   1.00
C3d      0.70865    0.47364    0.47558   1.00
C3       0.66646    0.52567    0.52323   1.00
O2       0.64752    0.55513    0.54287   1.00
C3       0.66773    0.47252    0.47654   1.00
H1       0.65343    0.45081    0.45867   1.00
C2       0.64561    0.49845    0.50012   1.00
C5       0.77121    0.41264    0.53991   1.00
H2       0.80162    0.40121    0.53824   1.00
H2       0.75734    0.40896    0.51068   1.00
C5       0.74871    0.38860    0.56982   1.00
H2       0.71863    0.40071    0.57230   1.00
H2       0.76302    0.39219    0.59881   1.00
C5       0.74738    0.34527    0.55802   1.00
H2       0.77732    0.33306    0.55523   1.00
H2       0.73189    0.34151    0.52973   1.00
C5       0.72555    0.32149    0.58927   1.00
C5       0.73895    0.46064    0.41776   1.00
C5       0.63930    0.54319    0.58150   1.00
H2       0.75912    0.48587    0.42088   1.00
H2       0.71288    0.47016    0.40074   1.00
H2       0.66700    0.53695    0.59744   1.00
H2       0.62105    0.51614    0.58261   1.00
H2       0.55970    0.55629    0.61886   1.00
H2       0.80753    0.46235    0.36871   1.00
H2       0.76237    0.46201    0.34088   1.00
C2       0.85395    0.49733    0.50023   1.00
C3       0.83403    0.52320    0.47511   1.00
O2       0.85326    0.54041    0.44421   1.00
C3       0.83174    0.47412    0.52617   1.00
H1       0.84615    0.45477    0.54647   1.00
C3a      0.79287    0.52456    0.47570   1.00
H1       0.77798    0.54287    0.45475   1.00
C3b      0.79078    0.47464    0.52582   1.00
C4       0.77100    0.49992    0.50041   1.00
O3       0.72833    0.44537    0.45449   1.00
C5       0.86280    0.57941    0.45331   1.00
H2       0.83609    0.59690    0.45986   1.00
C5       0.88326    0.59648    0.41769   1.00
H2       0.88274    0.58084    0.47897   1.00
H2       0.86068    0.60470    0.39581   1.00
H2       0.90093    0.57271    0.40429   1.00
C5       0.90918    0.63180    0.42762   1.00
H2       0.89176    0.65391    0.44371   1.00
C5       0.92547    0.65063    0.39023   1.00
H2       0.93493    0.62298    0.44562   1.00
C5       0.75983    0.42836    0.39537   1.00
H2       0.73785    0.40615    0.38641   1.00
H2       0.78048    0.41359    0.41568   1.00
C5       0.78200    0.44424    0.35967   1.00
C5       0.79775    0.41016    0.33501   1.00
H2       0.55714    0.62045    0.64391   1.00
C5       0.56088    0.58514    0.69738   1.00
H2       0.60677    0.61689    0.66567   1.00
C5       0.71663    0.28044    0.57333   1.00
H2       0.74449    0.31893    0.61649   1.00
H2       0.69707    0.33682    0.59698   1.00
C5       0.94503    0.68976    0.40047   1.00
H2       0.94789    0.63031    0.37644   1.00
H2       0.90063    0.65594    0.36876   1.00
H2       0.81398    0.38882    0.35469   1.00
H2       0.77239    0.39452    0.32024   1.00
C5       0.82583    0.42602    0.30374   1.00
H2       0.54884    0.55450    0.69271   1.00
H2       0.58429    0.58437    0.72099   1.00
H2       0.53626    0.60540    0.70685   1.00
H2       0.73180    0.27640    0.54401   1.00
H2       0.72771    0.25757    0.59478   1.00
H2       0.68379    0.27698    0.56939   1.00
H2       0.96111    0.68687    0.42943   1.00
H2       0.96664    0.69794    0.37655   1.00
H2       0.92181    0.71343    0.40299   1.00
H2       0.85693    0.42558    0.31552   1.00
H2       0.82402    0.40699    0.27653   1.00
H2       0.81734    0.45723    0.29602   1.00
C5       1.38218    0.57715    0.39939   1.00
H2       1.39745    0.59240    0.42355   1.00
H2       1.36090    0.59850    0.38748   1.00
C5       1.41194    0.56544    0.36784   1.00
C5       1.42123    0.60022    0.34097   1.00
H2       1.40015    0.54105    0.34992   1.00
O3       1.23000    0.45199    0.44794   1.00
C4       1.27100    0.50008    0.50041   1.00
C3c      1.29243    0.52621    0.47724   1.00
H1       1.27725    0.54697    0.45898   1.00
C3d      1.29135    0.47364    0.52442   1.00
C3       1.33354    0.52567    0.47677   1.00
O2       1.35248    0.55513    0.45713   1.00
C3       1.33227    0.47252    0.52346   1.00
H1       1.34657    0.45081    0.54133   1.00
C2       1.35439    0.49845    0.49988   1.00
C5       1.22879    0.41264    0.46009   1.00
H2       1.19838    0.40121    0.46176   1.00
H2       1.24266    0.40896    0.48932   1.00
C5       1.25129    0.38860    0.43018   1.00
H2       1.28137    0.40071    0.42770   1.00
H2       1.23698    0.39219    0.40119   1.00
C5       1.25262    0.34527    0.44198   1.00
H2       1.22268    0.33306    0.44477   1.00
H2       1.26811    0.34151    0.47027   1.00
C5       1.27445    0.32149    0.41073   1.00
C5       1.26105    0.46064    0.58224   1.00
C5       1.36070    0.54319    0.41850   1.00
H2       1.24088    0.48587    0.57912   1.00
H2       1.28712    0.47016    0.59926   1.00
H2       1.33300    0.53695    0.40256   1.00
H2       1.37895    0.51614    0.41739   1.00
H2       1.44030    0.55629    0.38114   1.00
H2       1.19247    0.46235    0.63129   1.00
H2       1.23763    0.46201    0.65912   1.00
C2       1.14605    0.49733    0.49977   1.00
C3       1.16597    0.52320    0.52489   1.00
O2       1.14674    0.54041    0.55579   1.00
C3       1.16826    0.47412    0.47383   1.00
H1       1.15385    0.45477    0.45353   1.00
C3a      1.20713    0.52456    0.52430   1.00
H1       1.22202    0.54287    0.54525   1.00
C3b      1.20922    0.47464    0.47418   1.00
C4       1.22900    0.49992    0.49959   1.00
O3       1.27167    0.44537    0.54551   1.00
C5       1.13720    0.57941    0.54669   1.00
H2       1.16391    0.59690    0.54014   1.00
C5       1.11674    0.59648    0.58231   1.00
H2       1.11726    0.58084    0.52103   1.00
H2       1.13932    0.60470    0.60419   1.00
H2       1.09907    0.57271    0.59571   1.00
C5       1.09082    0.63180    0.57238   1.00
H2       1.10824    0.65391    0.55629   1.00
C5       1.07453    0.65063    0.60977   1.00
H2       1.06507    0.62298    0.55438   1.00
C5       1.24017    0.42836    0.60463   1.00
H2       1.26215    0.40615    0.61359   1.00
H2       1.21952    0.41359    0.58432   1.00
C5       1.21800    0.44424    0.64033   1.00
C5       1.20225    0.41016    0.66499   1.00
H2       1.44286    0.62045    0.35609   1.00
C5       1.43912    0.58514    0.30262   1.00
H2       1.39323    0.61689    0.33433   1.00
C5       1.28337    0.28044    0.42667   1.00
H2       1.25551    0.31893    0.38351   1.00
H2       1.30293    0.33682    0.40302   1.00
C5       1.05497    0.68976    0.59953   1.00
H2       1.05211    0.63031    0.62356   1.00
H2       1.09937    0.65594    0.63124   1.00
H2       1.18602    0.38882    0.64531   1.00
H2       1.22761    0.39452    0.67976   1.00
C5       1.17417    0.42602    0.69626   1.00
H2       1.45116    0.55450    0.30729   1.00
H2       1.41571    0.58437    0.27901   1.00
H2       1.46374    0.60540    0.29315   1.00
H2       1.26820    0.27640    0.45599   1.00
H2       1.27229    0.25757    0.40522   1.00
H2       1.31621    0.27698    0.43061   1.00
H2       1.03889    0.68687    0.57057   1.00
H2       1.03336    0.69794    0.62345   1.00
H2       1.07819    0.71343    0.59701   1.00
H2       1.14307    0.42558    0.68448   1.00
H2       1.17598    0.40699    0.72347   1.00
H2       1.18266    0.45723    0.70398   1.00
C5       1.10061    0.11782    0.57715   1.00
H2       1.07645    0.10255    0.59240   1.00
H2       1.11252    0.13910    0.59850   1.00
C5       1.13216    0.08806    0.56544   1.00
C5       1.15903    0.07877    0.60022   1.00
H2       1.15008    0.09985    0.54105   1.00
O3       1.05206    0.27000    0.45199   1.00
C4       0.99959    0.22900    0.50008   1.00
C3c      1.02276    0.20757    0.52621   1.00
H1       1.04102    0.22275    0.54697   1.00
C3d      0.97558    0.20865    0.47364   1.00
C3       1.02323    0.16646    0.52567   1.00
O2       1.04287    0.14752    0.55513   1.00
C3       0.97654    0.16773    0.47252   1.00
H1       0.95867    0.15343    0.45081   1.00
C2       1.00012    0.14561    0.49845   1.00
C5       1.03991    0.27121    0.41264   1.00
H2       1.03824    0.30162    0.40121   1.00
H2       1.01068    0.25734    0.40896   1.00
C5       1.06982    0.24871    0.38860   1.00
H2       1.07230    0.21863    0.40071   1.00
H2       1.09881    0.26302    0.39219   1.00
C5       1.05802    0.24738    0.34527   1.00
H2       1.05523    0.27732    0.33306   1.00
H2       1.02973    0.23189    0.34151   1.00
C5       1.08927    0.22555    0.32149   1.00
C5       0.91776    0.23895    0.46064   1.00
C5       1.08150    0.13930    0.54319   1.00
H2       0.92088    0.25912    0.48587   1.00
H2       0.90074    0.21288    0.47016   1.00
H2       1.09744    0.16700    0.53695   1.00
H2       1.08261    0.12105    0.51614   1.00
H2       1.11886    0.05970    0.55629   1.00
H2       0.86871    0.30753    0.46235   1.00
H2       0.84088    0.26237    0.46201   1.00
C2       1.00023    0.35395    0.49733   1.00
C3       0.97511    0.33403    0.52320   1.00
O2       0.94421    0.35326    0.54041   1.00
C3       1.02617    0.33174    0.47412   1.00
H1       1.04647    0.34615    0.45477   1.00
C3a      0.97570    0.29287    0.52456   1.00
H1       0.95475    0.27798    0.54287   1.00
C3b      1.02582    0.29078    0.47464   1.00
C4       1.00041    0.27100    0.49992   1.00
O3       0.95449    0.22833    0.44537   1.00
C5       0.95331    0.36280    0.57941   1.00
H2       0.95986    0.33609    0.59690   1.00
C5       0.91769    0.38326    0.59648   1.00
H2       0.97897    0.38274    0.58084   1.00
H2       0.89581    0.36068    0.60470   1.00
H2       0.90429    0.40093    0.57271   1.00
C5       0.92762    0.40918    0.63180   1.00
H2       0.94371    0.39176    0.65391   1.00
C5       0.89023    0.42547    0.65063   1.00
H2       0.94562    0.43493    0.62298   1.00
C5       0.89537    0.25983    0.42836   1.00
H2       0.88641    0.23785    0.40615   1.00
H2       0.91568    0.28048    0.41359   1.00
C5       0.85967    0.28200    0.44424   1.00
C5       0.83501    0.29775    0.41016   1.00
H2       1.14391    0.05714    0.62045   1.00
C5       1.19738    0.06088    0.58514   1.00
H2       1.16567    0.10677    0.61689   1.00
C5       1.07333    0.21663    0.28044   1.00
H2       1.11649    0.24449    0.31893   1.00
H2       1.09698    0.19707    0.33682   1.00
C5       0.90047    0.44503    0.68976   1.00
H2       0.87644    0.44789    0.63031   1.00
H2       0.86876    0.40063    0.65594   1.00
H2       0.85469    0.31398    0.38882   1.00
H2       0.82024    0.27239    0.39452   1.00
C5       0.80374    0.32583    0.42602   1.00
H2       1.19271    0.04884    0.55450   1.00
H2       1.22099    0.08429    0.58437   1.00
H2       1.20685    0.03626    0.60540   1.00
H2       1.04401    0.23180    0.27640   1.00
H2       1.09478    0.22771    0.25757   1.00
H2       1.06939    0.18379    0.27698   1.00
H2       0.92943    0.46111    0.68687   1.00
H2       0.87655    0.46664    0.69794   1.00
H2       0.90299    0.42181    0.71343   1.00
H2       0.81552    0.35693    0.42558   1.00
H2       0.77653    0.32402    0.40699   1.00
H2       0.79602    0.31734    0.45723   1.00
C5       1.07715    0.60061    0.11782   1.00
H2       1.09240    0.57645    0.10255   1.00
H2       1.09850    0.61252    0.13910   1.00
C5       1.06544    0.63216    0.08806   1.00
C5       1.10022    0.65903    0.07877   1.00
H2       1.04105    0.65008    0.09985   1.00
O3       0.95199    0.55206    0.27000   1.00
C4       1.00008    0.49959    0.22900   1.00
C3c      1.02621    0.52276    0.20757   1.00
H1       1.04697    0.54102    0.22275   1.00
C3d      0.97364    0.47558    0.20865   1.00
C3       1.02567    0.52323    0.16646   1.00
O2       1.05513    0.54287    0.14752   1.00
C3       0.97252    0.47654    0.16773   1.00
H1       0.95081    0.45867    0.15343   1.00
C2       0.99845    0.50012    0.14561   1.00
C5       0.91264    0.53991    0.27121   1.00
H2       0.90121    0.53824    0.30162   1.00
H2       0.90896    0.51068    0.25734   1.00
C5       0.88860    0.56982    0.24871   1.00
H2       0.90071    0.57230    0.21863   1.00
H2       0.89219    0.59881    0.26302   1.00
C5       0.84527    0.55802    0.24738   1.00
H2       0.83306    0.55523    0.27732   1.00
H2       0.84151    0.52973    0.23189   1.00
C5       0.82149    0.58927    0.22555   1.00
C5       0.96064    0.41776    0.23895   1.00
C5       1.04319    0.58150    0.13930   1.00
H2       0.98587    0.42088    0.25912   1.00
H2       0.97016    0.40074    0.21288   1.00
H2       1.03695    0.59744    0.16700   1.00
H2       1.01614    0.58261    0.12105   1.00
H2       1.05629    0.61886    0.05970   1.00
H2       0.96235    0.36871    0.30753   1.00
H2       0.96201    0.34088    0.26237   1.00
C2       0.99733    0.50023    0.35395   1.00
C3       1.02320    0.47511    0.33403   1.00
O2       1.04041    0.44421    0.35326   1.00
C3       0.97412    0.52617    0.33174   1.00
H1       0.95477    0.54647    0.34615   1.00
C3a      1.02456    0.47570    0.29287   1.00
H1       1.04287    0.45475    0.27798   1.00
C3b      0.97464    0.52582    0.29078   1.00
C4       0.99992    0.50041    0.27100   1.00
O3       0.94537    0.45449    0.22833   1.00
C5       1.07941    0.45331    0.36280   1.00
H2       1.09690    0.45986    0.33609   1.00
C5       1.09648    0.41769    0.38326   1.00
H2       1.08084    0.47897    0.38274   1.00
H2       1.10470    0.39581    0.36068   1.00
H2       1.07271    0.40429    0.40093   1.00
C5       1.13180    0.42762    0.40918   1.00
H2       1.15391    0.44371    0.39176   1.00
C5       1.15063    0.39023    0.42547   1.00
H2       1.12298    0.44562    0.43493   1.00
C5       0.92836    0.39537    0.25983   1.00
H2       0.90615    0.38641    0.23785   1.00
H2       0.91359    0.41568    0.28048   1.00
C5       0.94424    0.35967    0.28200   1.00
C5       0.91016    0.33501    0.29775   1.00
H2       1.12045    0.64391    0.05714   1.00
C5       1.08514    0.69738    0.06088   1.00
H2       1.11689    0.66567    0.10677   1.00
C5       0.78044    0.57333    0.21663   1.00
H2       0.81893    0.61649    0.24449   1.00
H2       0.83682    0.59698    0.19707   1.00
C5       1.18976    0.40047    0.44503   1.00
H2       1.13031    0.37644    0.44789   1.00
H2       1.15594    0.36876    0.40063   1.00
H2       0.88882    0.35469    0.31398   1.00
H2       0.89452    0.32024    0.27239   1.00
C5       0.92602    0.30374    0.32583   1.00
H2       1.05450    0.69271    0.04884   1.00
H2       1.08437    0.72099    0.08429   1.00
H2       1.10540    0.70685    0.03626   1.00
H2       0.77640    0.54401    0.23180   1.00
H2       0.75757    0.59478    0.22771   1.00
H2       0.77698    0.56939    0.18379   1.00
H2       1.18687    0.42943    0.46111   1.00
H2       1.19794    0.37655    0.46664   1.00
H2       1.21343    0.40299    0.42181   1.00
H2       0.92558    0.31552    0.35693   1.00
H2       0.90699    0.27653    0.32402   1.00
H2       0.95723    0.29602    0.31734   1.00
