data_IRMOF10_SG202_interpen_Ligand1lp_label_d.

_audit_creation_method             'generated by an auxiliary program of Tobunporous'

_symmetry_space_group_name_H-M     'P 1'
_symmetry_Int_Tables_number        1
_symmetry_cell_setting             triclinic

_cell_length_a                    34.2800
_cell_length_b                    34.2800
_cell_length_c                    34.2800
_cell_angle_alpha                 90.0000
_cell_angle_beta                  90.0000
_cell_angle_gamma                 90.0000

loop_
_atom_site_label
_atom_site_fract_x
_atom_site_fract_y
_atom_site_fract_z
_atom_site_occupancy
O1       0.75000    0.75000    0.75000   1.00
Zn1      0.71720    0.78280    0.78280   1.00
Zn1      0.78280    0.71720    0.78280   1.00
Zn1      0.78280    0.78280    0.71720   1.00
Zn1      0.71720    0.71720    0.71720   1.00
O2       0.72650    0.77350    0.83820   1.00
O2       0.72650    0.83820    0.77350   1.00
O2       0.66180    0.77350    0.77350   1.00
O2       0.77350    0.72650    0.83820   1.00
O2       0.83820    0.72650    0.77350   1.00
O2       0.77350    0.66180    0.77350   1.00
O2       0.77350    0.83820    0.72650   1.00
O2       0.83820    0.77350    0.72650   1.00
O2       0.77350    0.77350    0.66180   1.00
O2       0.66180    0.72650    0.72650   1.00
O2       0.72650    0.66180    0.72650   1.00
O2       0.72650    0.72650    0.66180   1.00
C1       0.75000    0.75000    0.85520   1.00
C1       0.75000    0.85520    0.75000   1.00
C1       0.64480    0.75000    0.75000   1.00
C1       0.85520    0.75000    0.75000   1.00
C1       0.75000    0.64480    0.75000   1.00
C1       0.75000    0.75000    0.64480   1.00
O1       0.25000    0.25000    0.75000   1.00
Zn1      0.21720    0.28280    0.78280   1.00
Zn1      0.28280    0.21720    0.78280   1.00
Zn1      0.28280    0.28280    0.71720   1.00
Zn1      0.21720    0.21720    0.71720   1.00
O2       0.22650    0.27350    0.83820   1.00
O2       0.22650    0.33820    0.77350   1.00
O2       0.16180    0.27350    0.77350   1.00
O2       0.27350    0.22650    0.83820   1.00
O2       0.33820    0.22650    0.77350   1.00
O2       0.27350    0.16180    0.77350   1.00
O2       0.27350    0.33820    0.72650   1.00
O2       0.33820    0.27350    0.72650   1.00
O2       0.27350    0.27350    0.66180   1.00
O2       0.16180    0.22650    0.72650   1.00
O2       0.22650    0.16180    0.72650   1.00
O2       0.22650    0.22650    0.66180   1.00
C1       0.25000    0.25000    0.85520   1.00
C1       0.25000    0.35520    0.75000   1.00
C1       0.14480    0.25000    0.75000   1.00
C1       0.35520    0.25000    0.75000   1.00
C1       0.25000    0.14480    0.75000   1.00
C1       0.25000    0.25000    0.64480   1.00
O1       0.25000    0.75000    0.25000   1.00
Zn1      0.21720    0.78280    0.28280   1.00
Zn1      0.28280    0.71720    0.28280   1.00
Zn1      0.28280    0.78280    0.21720   1.00
Zn1      0.21720    0.71720    0.21720   1.00
O2       0.22650    0.77350    0.33820   1.00
O2       0.22650    0.83820    0.27350   1.00
O2       0.16180    0.77350    0.27350   1.00
O2       0.27350    0.72650    0.33820   1.00
O2       0.33820    0.72650    0.27350   1.00
O2       0.27350    0.66180    0.27350   1.00
O2       0.27350    0.83820    0.22650   1.00
O2       0.33820    0.77350    0.22650   1.00
O2       0.27350    0.77350    0.16180   1.00
O2       0.16180    0.72650    0.22650   1.00
O2       0.22650    0.66180    0.22650   1.00
O2       0.22650    0.72650    0.16180   1.00
C1       0.25000    0.75000    0.35520   1.00
C1       0.25000    0.85520    0.25000   1.00
C1       0.14480    0.75000    0.25000   1.00
C1       0.35520    0.75000    0.25000   1.00
C1       0.25000    0.64480    0.25000   1.00
C1       0.25000    0.75000    0.14480   1.00
O1       0.75000    0.25000    0.25000   1.00
Zn1      0.71720    0.28280    0.28280   1.00
Zn1      0.78280    0.21720    0.28280   1.00
Zn1      0.78280    0.28280    0.21720   1.00
Zn1      0.71720    0.21720    0.21720   1.00
O2       0.72650    0.27350    0.33820   1.00
O2       0.72650    0.33820    0.27350   1.00
O2       0.66180    0.27350    0.27350   1.00
O2       0.77350    0.22650    0.33820   1.00
O2       0.83820    0.22650    0.27350   1.00
O2       0.77350    0.16180    0.27350   1.00
O2       0.77350    0.33820    0.22650   1.00
O2       0.83820    0.27350    0.22650   1.00
O2       0.77350    0.27350    0.16180   1.00
O2       0.66180    0.22650    0.22650   1.00
O2       0.72650    0.16180    0.22650   1.00
O2       0.72650    0.22650    0.16180   1.00
C1       0.75000    0.25000    0.35520   1.00
C1       0.75000    0.35520    0.25000   1.00
C1       0.64480    0.25000    0.25000   1.00
C1       0.85520    0.25000    0.25000   1.00
C1       0.75000    0.14480    0.25000   1.00
C1       0.75000    0.25000    0.14480   1.00
O1       0.25000    0.25000    0.25000   1.00
Zn1      0.28280    0.21720    0.21720   1.00
Zn1      0.21720    0.28280    0.21720   1.00
Zn1      0.21720    0.21720    0.28280   1.00
Zn1      0.28280    0.28280    0.28280   1.00
O2       0.27350    0.22650    0.16180   1.00
O2       0.27350    0.16180    0.22650   1.00
O2       0.33820    0.22650    0.22650   1.00
O2       0.22650    0.27350    0.16180   1.00
O2       0.16180    0.27350    0.22650   1.00
O2       0.22650    0.33820    0.22650   1.00
O2       0.22650    0.16180    0.27350   1.00
O2       0.16180    0.22650    0.27350   1.00
O2       0.22650    0.22650    0.33820   1.00
O2       0.33820    0.27350    0.27350   1.00
O2       0.27350    0.33820    0.27350   1.00
O2       0.27350    0.27350    0.33820   1.00
C1       0.25000    0.25000    0.14480   1.00
C1       0.25000    0.14480    0.25000   1.00
C1       0.35520    0.25000    0.25000   1.00
C1       0.14480    0.25000    0.25000   1.00
C1       0.25000    0.35520    0.25000   1.00
C1       0.25000    0.25000    0.35520   1.00
O1       0.75000    0.75000    0.25000   1.00
Zn1      0.78280    0.71720    0.21720   1.00
Zn1      0.71720    0.78280    0.21720   1.00
Zn1      0.71720    0.71720    0.28280   1.00
Zn1      0.78280    0.78280    0.28280   1.00
O2       0.77350    0.72650    0.16180   1.00
O2       0.77350    0.66180    0.22650   1.00
O2       0.83820    0.72650    0.22650   1.00
O2       0.72650    0.77350    0.16180   1.00
O2       0.66180    0.77350    0.22650   1.00
O2       0.72650    0.83820    0.22650   1.00
O2       0.72650    0.66180    0.27350   1.00
O2       0.66180    0.72650    0.27350   1.00
O2       0.72650    0.72650    0.33820   1.00
O2       0.83820    0.77350    0.27350   1.00
O2       0.77350    0.83820    0.27350   1.00
O2       0.77350    0.77350    0.33820   1.00
C1       0.75000    0.75000    0.14480   1.00
C1       0.75000    0.64480    0.25000   1.00
C1       0.85520    0.75000    0.25000   1.00
C1       0.64480    0.75000    0.25000   1.00
C1       0.75000    0.85520    0.25000   1.00
C1       0.75000    0.75000    0.35520   1.00
O1       0.75000    0.25000    0.75000   1.00
Zn1      0.78280    0.21720    0.71720   1.00
Zn1      0.71720    0.28280    0.71720   1.00
Zn1      0.71720    0.21720    0.78280   1.00
Zn1      0.78280    0.28280    0.78280   1.00
O2       0.77350    0.22650    0.66180   1.00
O2       0.77350    0.16180    0.72650   1.00
O2       0.83820    0.22650    0.72650   1.00
O2       0.72650    0.27350    0.66180   1.00
O2       0.66180    0.27350    0.72650   1.00
O2       0.72650    0.33820    0.72650   1.00
O2       0.72650    0.16180    0.77350   1.00
O2       0.66180    0.22650    0.77350   1.00
O2       0.72650    0.22650    0.83820   1.00
O2       0.83820    0.27350    0.77350   1.00
O2       0.77350    0.33820    0.77350   1.00
O2       0.77350    0.27350    0.83820   1.00
C1       0.75000    0.25000    0.64480   1.00
C1       0.75000    0.14480    0.75000   1.00
C1       0.85520    0.25000    0.75000   1.00
C1       0.64480    0.25000    0.75000   1.00
C1       0.75000    0.35520    0.75000   1.00
C1       0.75000    0.25000    0.85520   1.00
O1       0.25000    0.75000    0.75000   1.00
Zn1      0.28280    0.71720    0.71720   1.00
Zn1      0.21720    0.78280    0.71720   1.00
Zn1      0.21720    0.71720    0.78280   1.00
Zn1      0.28280    0.78280    0.78280   1.00
O2       0.27350    0.72650    0.66180   1.00
O2       0.27350    0.66180    0.72650   1.00
O2       0.33820    0.72650    0.72650   1.00
O2       0.22650    0.77350    0.66180   1.00
O2       0.16180    0.77350    0.72650   1.00
O2       0.22650    0.83820    0.72650   1.00
O2       0.22650    0.66180    0.77350   1.00
O2       0.16180    0.72650    0.77350   1.00
O2       0.22650    0.72650    0.83820   1.00
O2       0.33820    0.77350    0.77350   1.00
O2       0.27350    0.83820    0.77350   1.00
O2       0.27350    0.77350    0.83820   1.00
C1       0.25000    0.75000    0.64480   1.00
C1       0.25000    0.64480    0.75000   1.00
C1       0.35520    0.75000    0.75000   1.00
C1       0.14480    0.75000    0.75000   1.00
C1       0.25000    0.85520    0.75000   1.00
C1       0.25000    0.75000    0.85520   1.00
O1       1.00000    1.00000    1.00000   1.00
Zn1      0.96720    1.03280    1.03280   1.00
Zn1      1.03280    0.96720    1.03280   1.00
Zn1      1.03280    1.03280    0.96720   1.00
Zn1      0.96720    0.96720    0.96720   1.00
O2       0.97650    1.02350    1.08820   1.00
O2       0.97650    1.08820    1.02350   1.00
O2       0.91180    1.02350    1.02350   1.00
O2       1.02350    0.97650    1.08820   1.00
O2       1.08820    0.97650    1.02350   1.00
O2       1.02350    0.91180    1.02350   1.00
O2       1.02350    1.08820    0.97650   1.00
O2       1.08820    1.02350    0.97650   1.00
O2       1.02350    1.02350    0.91180   1.00
O2       0.91180    0.97650    0.97650   1.00
O2       0.97650    0.91180    0.97650   1.00
O2       0.97650    0.97650    0.91180   1.00
C1       1.00000    1.00000    1.10520   1.00
C1       1.00000    1.10520    1.00000   1.00
C1       0.89480    1.00000    1.00000   1.00
C1       1.10520    1.00000    1.00000   1.00
C1       1.00000    0.89480    1.00000   1.00
C1       1.00000    1.00000    0.89480   1.00
O1       0.50000    0.50000    1.00000   1.00
Zn1      0.46720    0.53280    1.03280   1.00
Zn1      0.53280    0.46720    1.03280   1.00
Zn1      0.53280    0.53280    0.96720   1.00
Zn1      0.46720    0.46720    0.96720   1.00
O2       0.47650    0.52350    1.08820   1.00
O2       0.47650    0.58820    1.02350   1.00
O2       0.41180    0.52350    1.02350   1.00
O2       0.52350    0.47650    1.08820   1.00
O2       0.58820    0.47650    1.02350   1.00
O2       0.52350    0.41180    1.02350   1.00
O2       0.52350    0.58820    0.97650   1.00
O2       0.58820    0.52350    0.97650   1.00
O2       0.52350    0.52350    0.91180   1.00
O2       0.41180    0.47650    0.97650   1.00
O2       0.47650    0.41180    0.97650   1.00
O2       0.47650    0.47650    0.91180   1.00
C1       0.50000    0.50000    1.10520   1.00
C1       0.50000    0.60520    1.00000   1.00
C1       0.39480    0.50000    1.00000   1.00
C1       0.60520    0.50000    1.00000   1.00
C1       0.50000    0.39480    1.00000   1.00
C1       0.50000    0.50000    0.89480   1.00
O1       0.50000    1.00000    0.50000   1.00
Zn1      0.46720    1.03280    0.53280   1.00
Zn1      0.53280    0.96720    0.53280   1.00
Zn1      0.53280    1.03280    0.46720   1.00
Zn1      0.46720    0.96720    0.46720   1.00
O2       0.47650    1.02350    0.58820   1.00
O2       0.47650    1.08820    0.52350   1.00
O2       0.41180    1.02350    0.52350   1.00
O2       0.52350    0.97650    0.58820   1.00
O2       0.58820    0.97650    0.52350   1.00
O2       0.52350    0.91180    0.52350   1.00
O2       0.52350    1.08820    0.47650   1.00
O2       0.58820    1.02350    0.47650   1.00
O2       0.52350    1.02350    0.41180   1.00
O2       0.41180    0.97650    0.47650   1.00
O2       0.47650    0.91180    0.47650   1.00
O2       0.47650    0.97650    0.41180   1.00
C1       0.50000    1.00000    0.60520   1.00
C1       0.50000    1.10520    0.50000   1.00
C1       0.39480    1.00000    0.50000   1.00
C1       0.60520    1.00000    0.50000   1.00
C1       0.50000    0.89480    0.50000   1.00
C1       0.50000    1.00000    0.39480   1.00
O1       1.00000    0.50000    0.50000   1.00
Zn1      0.96720    0.53280    0.53280   1.00
Zn1      1.03280    0.46720    0.53280   1.00
Zn1      1.03280    0.53280    0.46720   1.00
Zn1      0.96720    0.46720    0.46720   1.00
O2       0.97650    0.52350    0.58820   1.00
O2       0.97650    0.58820    0.52350   1.00
O2       0.91180    0.52350    0.52350   1.00
O2       1.02350    0.47650    0.58820   1.00
O2       1.08820    0.47650    0.52350   1.00
O2       1.02350    0.41180    0.52350   1.00
O2       1.02350    0.58820    0.47650   1.00
O2       1.08820    0.52350    0.47650   1.00
O2       1.02350    0.52350    0.41180   1.00
O2       0.91180    0.47650    0.47650   1.00
O2       0.97650    0.41180    0.47650   1.00
O2       0.97650    0.47650    0.41180   1.00
C1       1.00000    0.50000    0.60520   1.00
C1       1.00000    0.60520    0.50000   1.00
C1       0.89480    0.50000    0.50000   1.00
C1       1.10520    0.50000    0.50000   1.00
C1       1.00000    0.39480    0.50000   1.00
C1       1.00000    0.50000    0.39480   1.00
O1       0.50000    0.50000    0.50000   1.00
Zn1      0.53280    0.46720    0.46720   1.00
Zn1      0.46720    0.53280    0.46720   1.00
Zn1      0.46720    0.46720    0.53280   1.00
Zn1      0.53280    0.53280    0.53280   1.00
O2       0.52350    0.47650    0.41180   1.00
O2       0.52350    0.41180    0.47650   1.00
O2       0.58820    0.47650    0.47650   1.00
O2       0.47650    0.52350    0.41180   1.00
O2       0.41180    0.52350    0.47650   1.00
O2       0.47650    0.58820    0.47650   1.00
O2       0.47650    0.41180    0.52350   1.00
O2       0.41180    0.47650    0.52350   1.00
O2       0.47650    0.47650    0.58820   1.00
O2       0.58820    0.52350    0.52350   1.00
O2       0.52350    0.58820    0.52350   1.00
O2       0.52350    0.52350    0.58820   1.00
C1       0.50000    0.50000    0.39480   1.00
C1       0.50000    0.39480    0.50000   1.00
C1       0.60520    0.50000    0.50000   1.00
C1       0.39480    0.50000    0.50000   1.00
C1       0.50000    0.60520    0.50000   1.00
C1       0.50000    0.50000    0.60520   1.00
O1       1.00000    1.00000    0.50000   1.00
Zn1      1.03280    0.96720    0.46720   1.00
Zn1      0.96720    1.03280    0.46720   1.00
Zn1      0.96720    0.96720    0.53280   1.00
Zn1      1.03280    1.03280    0.53280   1.00
O2       1.02350    0.97650    0.41180   1.00
O2       1.02350    0.91180    0.47650   1.00
O2       1.08820    0.97650    0.47650   1.00
O2       0.97650    1.02350    0.41180   1.00
O2       0.91180    1.02350    0.47650   1.00
O2       0.97650    1.08820    0.47650   1.00
O2       0.97650    0.91180    0.52350   1.00
O2       0.91180    0.97650    0.52350   1.00
O2       0.97650    0.97650    0.58820   1.00
O2       1.08820    1.02350    0.52350   1.00
O2       1.02350    1.08820    0.52350   1.00
O2       1.02350    1.02350    0.58820   1.00
C1       1.00000    1.00000    0.39480   1.00
C1       1.00000    0.89480    0.50000   1.00
C1       1.10520    1.00000    0.50000   1.00
C1       0.89480    1.00000    0.50000   1.00
C1       1.00000    1.10520    0.50000   1.00
C1       1.00000    1.00000    0.60520   1.00
O1       1.00000    0.50000    1.00000   1.00
Zn1      1.03280    0.46720    0.96720   1.00
Zn1      0.96720    0.53280    0.96720   1.00
Zn1      0.96720    0.46720    1.03280   1.00
Zn1      1.03280    0.53280    1.03280   1.00
O2       1.02350    0.47650    0.91180   1.00
O2       1.02350    0.41180    0.97650   1.00
O2       1.08820    0.47650    0.97650   1.00
O2       0.97650    0.52350    0.91180   1.00
O2       0.91180    0.52350    0.97650   1.00
O2       0.97650    0.58820    0.97650   1.00
O2       0.97650    0.41180    1.02350   1.00
O2       0.91180    0.47650    1.02350   1.00
O2       0.97650    0.47650    1.08820   1.00
O2       1.08820    0.52350    1.02350   1.00
O2       1.02350    0.58820    1.02350   1.00
O2       1.02350    0.52350    1.08820   1.00
C1       1.00000    0.50000    0.89480   1.00
C1       1.00000    0.39480    1.00000   1.00
C1       1.10520    0.50000    1.00000   1.00
C1       0.89480    0.50000    1.00000   1.00
C1       1.00000    0.60520    1.00000   1.00
C1       1.00000    0.50000    1.10520   1.00
O1       0.50000    1.00000    1.00000   1.00
Zn1      0.53280    0.96720    0.96720   1.00
Zn1      0.46720    1.03280    0.96720   1.00
Zn1      0.46720    0.96720    1.03280   1.00
Zn1      0.53280    1.03280    1.03280   1.00
O2       0.52350    0.97650    0.91180   1.00
O2       0.52350    0.91180    0.97650   1.00
O2       0.58820    0.97650    0.97650   1.00
O2       0.47650    1.02350    0.91180   1.00
O2       0.41180    1.02350    0.97650   1.00
O2       0.47650    1.08820    0.97650   1.00
O2       0.47650    0.91180    1.02350   1.00
O2       0.41180    0.97650    1.02350   1.00
O2       0.47650    0.97650    1.08820   1.00
O2       0.58820    1.02350    1.02350   1.00
O2       0.52350    1.08820    1.02350   1.00
O2       0.52350    1.02350    1.08820   1.00
C1       0.50000    1.00000    0.89480   1.00
C1       0.50000    0.89480    1.00000   1.00
C1       0.60520    1.00000    1.00000   1.00
C1       0.39480    1.00000    1.00000   1.00
C1       0.50000    1.10520    1.00000   1.00
C1       0.50000    1.00000    1.10520   1.00
C5       0.76647    0.87594    1.13227   1.00
H2       0.73860    0.86964    1.14755   1.00
H2       0.75979    0.89946    1.11099   1.00
C5       0.79722    0.89004    1.16219   1.00
H2       0.79318    0.92157    1.16890   1.00
H2       0.82714    0.88547    1.15040   1.00
O_3      0.82069    0.75295    0.98000   1.00
C4       0.74958    0.74985    1.02100   1.00
C3c      0.74749    0.78471    1.04243   1.00
H1       0.74572    0.81231    1.02725   1.00
C3d      0.75130    0.71417    1.04135   1.00
C3       0.74820    0.78466    1.08354   1.00
O2       0.74126    0.81939    1.10248   1.00
C3       0.75276    0.71406    1.08227   1.00
H1       0.75548    0.68608    1.09657   1.00
C2       0.75111    0.74908    1.10439   1.00
C5       0.83992    0.71653    0.97879   1.00
H2       0.84682    0.70727    0.94838   1.00
H2       0.82185    0.69326    0.99266   1.00
C5       0.87794    0.72067    1.00122   1.00
H2       0.87113    0.73098    1.03129   1.00
H2       0.89590    0.74371    0.98691   1.00
C5       0.90015    0.68184    1.00254   1.00
H2       0.90681    0.67123    0.97260   1.00
H2       0.88280    0.65917    1.01803   1.00
H2       0.92825    0.68564    1.01830   1.00
C5       0.71961    0.66410    1.01105   1.00
C5       0.77702    0.83826    1.11070   1.00
H2       0.70397    0.68415    0.99088   1.00
H2       0.70084    0.65880    1.03712   1.00
H2       0.79270    0.84511    1.08300   1.00
H2       0.79693    0.81991    1.12895   1.00
H2       0.79428    0.87417    1.19055   1.00
H2       0.68370    0.63068    0.94250   1.00
H2       0.66426    0.61076    0.98766   1.00
C2       0.75198    0.74836    0.89605   1.00
C3       0.71592    0.74888    0.91597   1.00
O2       0.68190    0.73921    0.89674   1.00
C3       0.78674    0.75029    0.91826   1.00
H1       0.81477    0.75096    0.90385   1.00
C3a      0.71538    0.75027    0.95713   1.00
H1       0.68762    0.74840    0.97202   1.00
C3b      0.78612    0.75041    0.95922   1.00
C4       0.75028    0.75032    0.97900   1.00
O_3      0.75638    0.67928    1.02167   1.00
C5       0.66076    0.77322    0.88720   1.00
H2       0.65303    0.79021    0.91391   1.00
C5       0.62335    0.76005    0.86666   1.00
H2       0.67790    0.79238    0.86726   1.00
H2       0.60207    0.75039    0.88923   1.00
H2       0.63068    0.73377    0.84899   1.00
C5       0.60537    0.79210    0.84069   1.00
H2       0.60111    0.81912    0.85811   1.00
H2       0.57661    0.78261    0.82891   1.00
H2       0.62433    0.79859    0.81494   1.00
C5       0.72659    0.62550    0.99020   1.00
H2       0.73596    0.60346    1.01218   1.00
H2       0.75140    0.62942    0.96955   1.00
C5       0.69011    0.61149    0.96803   1.00
H2       0.69492    0.58150    0.95666   1.00
C5       0.87594    1.13227    0.76647   1.00
H2       0.86964    1.14755    0.73860   1.00
H2       0.89946    1.11099    0.75979   1.00
C5       0.89004    1.16219    0.79722   1.00
H2       0.92157    1.16890    0.79318   1.00
H2       0.88547    1.15040    0.82714   1.00
O_3      0.75295    0.98000    0.82069   1.00
C4       0.74985    1.02100    0.74958   1.00
C3c      0.78471    1.04243    0.74749   1.00
H1       0.81231    1.02725    0.74572   1.00
C3d      0.71417    1.04135    0.75130   1.00
C3       0.78466    1.08354    0.74820   1.00
O2       0.81939    1.10248    0.74126   1.00
C3       0.71406    1.08227    0.75276   1.00
H1       0.68608    1.09657    0.75548   1.00
C2       0.74908    1.10439    0.75111   1.00
C5       0.71653    0.97879    0.83992   1.00
H2       0.70727    0.94838    0.84682   1.00
H2       0.69326    0.99266    0.82185   1.00
C5       0.72067    1.00122    0.87794   1.00
H2       0.73098    1.03129    0.87113   1.00
H2       0.74371    0.98691    0.89590   1.00
C5       0.68184    1.00254    0.90015   1.00
H2       0.67123    0.97260    0.90681   1.00
H2       0.65917    1.01803    0.88280   1.00
H2       0.68564    1.01830    0.92825   1.00
C5       0.66410    1.01105    0.71961   1.00
C5       0.83826    1.11070    0.77702   1.00
H2       0.68415    0.99088    0.70397   1.00
H2       0.65880    1.03712    0.70084   1.00
H2       0.84511    1.08300    0.79270   1.00
H2       0.81991    1.12895    0.79693   1.00
H2       0.87417    1.19055    0.79428   1.00
H2       0.63068    0.94250    0.68370   1.00
H2       0.61076    0.98766    0.66426   1.00
C2       0.74836    0.89605    0.75198   1.00
C3       0.74888    0.91597    0.71592   1.00
O2       0.73921    0.89674    0.68190   1.00
C3       0.75029    0.91826    0.78674   1.00
H1       0.75096    0.90385    0.81477   1.00
C3a      0.75027    0.95713    0.71538   1.00
H1       0.74840    0.97202    0.68762   1.00
C3b      0.75041    0.95922    0.78612   1.00
C4       0.75032    0.97900    0.75028   1.00
O_3      0.67928    1.02167    0.75638   1.00
C5       0.77322    0.88720    0.66076   1.00
H2       0.79021    0.91391    0.65303   1.00
C5       0.76005    0.86666    0.62335   1.00
H2       0.79238    0.86726    0.67790   1.00
H2       0.75039    0.88923    0.60207   1.00
H2       0.73377    0.84899    0.63068   1.00
C5       0.79210    0.84069    0.60537   1.00
H2       0.81912    0.85811    0.60111   1.00
H2       0.78261    0.82891    0.57661   1.00
H2       0.79859    0.81494    0.62433   1.00
C5       0.62550    0.99020    0.72659   1.00
H2       0.60346    1.01218    0.73596   1.00
H2       0.62942    0.96955    0.75140   1.00
C5       0.61149    0.96803    0.69011   1.00
H2       0.58150    0.95666    0.69492   1.00
C5       0.36773    0.76647    0.62406   1.00
H2       0.35245    0.73860    0.63036   1.00
H2       0.38901    0.75979    0.60054   1.00
C5       0.33781    0.79722    0.60996   1.00
H2       0.33110    0.79318    0.57843   1.00
H2       0.34960    0.82714    0.61453   1.00
O_3      0.52000    0.82069    0.74705   1.00
C4       0.47900    0.74958    0.75015   1.00
C3c      0.45757    0.74749    0.71529   1.00
H1       0.47275    0.74572    0.68769   1.00
C3d      0.45865    0.75130    0.78583   1.00
C3       0.41646    0.74820    0.71534   1.00
O2       0.39752    0.74126    0.68061   1.00
C3       0.41773    0.75276    0.78594   1.00
H1       0.40343    0.75548    0.81392   1.00
C2       0.39561    0.75111    0.75092   1.00
C5       0.52121    0.83992    0.78347   1.00
H2       0.55162    0.84682    0.79273   1.00
H2       0.50734    0.82185    0.80674   1.00
C5       0.49878    0.87794    0.77933   1.00
H2       0.46871    0.87113    0.76902   1.00
H2       0.51309    0.89590    0.75629   1.00
C5       0.49746    0.90015    0.81816   1.00
H2       0.52740    0.90681    0.82877   1.00
H2       0.48197    0.88280    0.84083   1.00
H2       0.48170    0.92825    0.81436   1.00
C5       0.48895    0.71961    0.83590   1.00
C5       0.38930    0.77702    0.66174   1.00
H2       0.50912    0.70397    0.81585   1.00
H2       0.46288    0.70084    0.84120   1.00
H2       0.41700    0.79270    0.65489   1.00
H2       0.37105    0.79693    0.68009   1.00
H2       0.30945    0.79428    0.62583   1.00
H2       0.55750    0.68370    0.86932   1.00
H2       0.51234    0.66426    0.88924   1.00
C2       0.60395    0.75198    0.75164   1.00
C3       0.58403    0.71592    0.75112   1.00
O2       0.60326    0.68190    0.76079   1.00
C3       0.58174    0.78674    0.74971   1.00
H1       0.59615    0.81477    0.74904   1.00
C3a      0.54287    0.71538    0.74973   1.00
H1       0.52798    0.68762    0.75160   1.00
C3b      0.54078    0.78612    0.74959   1.00
C4       0.52100    0.75028    0.74968   1.00
O_3      0.47833    0.75638    0.82072   1.00
C5       0.61280    0.66076    0.72678   1.00
H2       0.58609    0.65303    0.70979   1.00
C5       0.63334    0.62335    0.73995   1.00
H2       0.63274    0.67790    0.70762   1.00
H2       0.61077    0.60207    0.74961   1.00
H2       0.65101    0.63068    0.76623   1.00
C5       0.65931    0.60537    0.70790   1.00
H2       0.64189    0.60111    0.68088   1.00
H2       0.67109    0.57661    0.71739   1.00
H2       0.68506    0.62433    0.70141   1.00
C5       0.50980    0.72659    0.87450   1.00
H2       0.48782    0.73596    0.89654   1.00
H2       0.53045    0.75140    0.87058   1.00
C5       0.53197    0.69011    0.88851   1.00
H2       0.54334    0.69492    0.91850   1.00
C5       1.13227    0.76647    0.87594   1.00
H2       1.14755    0.73860    0.86964   1.00
H2       1.11099    0.75979    0.89946   1.00
C5       1.16219    0.79722    0.89004   1.00
H2       1.16890    0.79318    0.92157   1.00
H2       1.15040    0.82714    0.88547   1.00
O_3      0.98000    0.82069    0.75295   1.00
C4       1.02100    0.74958    0.74985   1.00
C3c      1.04243    0.74749    0.78471   1.00
H1       1.02725    0.74572    0.81231   1.00
C3d      1.04135    0.75130    0.71417   1.00
C3       1.08354    0.74820    0.78466   1.00
O2       1.10248    0.74126    0.81939   1.00
C3       1.08227    0.75276    0.71406   1.00
H1       1.09657    0.75548    0.68608   1.00
C2       1.10439    0.75111    0.74908   1.00
C5       0.97879    0.83992    0.71653   1.00
H2       0.94838    0.84682    0.70727   1.00
H2       0.99266    0.82185    0.69326   1.00
C5       1.00122    0.87794    0.72067   1.00
H2       1.03129    0.87113    0.73098   1.00
H2       0.98691    0.89590    0.74371   1.00
C5       1.00254    0.90015    0.68184   1.00
H2       0.97260    0.90681    0.67123   1.00
H2       1.01803    0.88280    0.65917   1.00
H2       1.01830    0.92825    0.68564   1.00
C5       1.01105    0.71961    0.66410   1.00
C5       1.11070    0.77702    0.83826   1.00
H2       0.99088    0.70397    0.68415   1.00
H2       1.03712    0.70084    0.65880   1.00
H2       1.08300    0.79270    0.84511   1.00
H2       1.12895    0.79693    0.81991   1.00
H2       1.19055    0.79428    0.87417   1.00
H2       0.94250    0.68370    0.63068   1.00
H2       0.98766    0.66426    0.61076   1.00
C2       0.89605    0.75198    0.74836   1.00
C3       0.91597    0.71592    0.74888   1.00
O2       0.89674    0.68190    0.73921   1.00
C3       0.91826    0.78674    0.75029   1.00
H1       0.90385    0.81477    0.75096   1.00
C3a      0.95713    0.71538    0.75027   1.00
H1       0.97202    0.68762    0.74840   1.00
C3b      0.95922    0.78612    0.75041   1.00
C4       0.97900    0.75028    0.75032   1.00
O_3      1.02167    0.75638    0.67928   1.00
C5       0.88720    0.66076    0.77322   1.00
H2       0.91391    0.65303    0.79021   1.00
C5       0.86666    0.62335    0.76005   1.00
H2       0.86726    0.67790    0.79238   1.00
H2       0.88923    0.60207    0.75039   1.00
H2       0.84899    0.63068    0.73377   1.00
C5       0.84069    0.60537    0.79210   1.00
H2       0.85811    0.60111    0.81912   1.00
H2       0.82891    0.57661    0.78261   1.00
H2       0.81494    0.62433    0.79859   1.00
C5       0.99020    0.72659    0.62550   1.00
H2       1.01218    0.73596    0.60346   1.00
H2       0.96955    0.75140    0.62942   1.00
C5       0.96803    0.69011    0.61149   1.00
H2       0.95666    0.69492    0.58150   1.00
C5       0.62406    0.36773    0.76647   1.00
H2       0.63036    0.35245    0.73860   1.00
H2       0.60054    0.38901    0.75979   1.00
C5       0.60996    0.33781    0.79722   1.00
H2       0.57843    0.33110    0.79318   1.00
H2       0.61453    0.34960    0.82714   1.00
O_3      0.74705    0.52000    0.82069   1.00
C4       0.75015    0.47900    0.74958   1.00
C3c      0.71529    0.45757    0.74749   1.00
H1       0.68769    0.47275    0.74572   1.00
C3d      0.78583    0.45865    0.75130   1.00
C3       0.71534    0.41646    0.74820   1.00
O2       0.68061    0.39752    0.74126   1.00
C3       0.78594    0.41773    0.75276   1.00
H1       0.81392    0.40343    0.75548   1.00
C2       0.75092    0.39561    0.75111   1.00
C5       0.78347    0.52121    0.83992   1.00
H2       0.79273    0.55162    0.84682   1.00
H2       0.80674    0.50734    0.82185   1.00
C5       0.77933    0.49878    0.87794   1.00
H2       0.76902    0.46871    0.87113   1.00
H2       0.75629    0.51309    0.89590   1.00
C5       0.81816    0.49746    0.90015   1.00
H2       0.82877    0.52740    0.90681   1.00
H2       0.84083    0.48197    0.88280   1.00
H2       0.81436    0.48170    0.92825   1.00
C5       0.83590    0.48895    0.71961   1.00
C5       0.66174    0.38930    0.77702   1.00
H2       0.81585    0.50912    0.70397   1.00
H2       0.84120    0.46288    0.70084   1.00
H2       0.65489    0.41700    0.79270   1.00
H2       0.68009    0.37105    0.79693   1.00
H2       0.62583    0.30945    0.79428   1.00
H2       0.86932    0.55750    0.68370   1.00
H2       0.88924    0.51234    0.66426   1.00
C2       0.75164    0.60395    0.75198   1.00
C3       0.75112    0.58403    0.71592   1.00
O2       0.76079    0.60326    0.68190   1.00
C3       0.74971    0.58174    0.78674   1.00
H1       0.74904    0.59615    0.81477   1.00
C3a      0.74973    0.54287    0.71538   1.00
H1       0.75160    0.52798    0.68762   1.00
C3b      0.74959    0.54078    0.78612   1.00
C4       0.74968    0.52100    0.75028   1.00
O_3      0.82072    0.47833    0.75638   1.00
C5       0.72678    0.61280    0.66076   1.00
H2       0.70979    0.58609    0.65303   1.00
C5       0.73995    0.63334    0.62335   1.00
H2       0.70762    0.63274    0.67790   1.00
H2       0.74961    0.61077    0.60207   1.00
H2       0.76623    0.65101    0.63068   1.00
C5       0.70790    0.65931    0.60537   1.00
H2       0.68088    0.64189    0.60111   1.00
H2       0.71739    0.67109    0.57661   1.00
H2       0.70141    0.68506    0.62433   1.00
C5       0.87450    0.50980    0.72659   1.00
H2       0.89654    0.48782    0.73596   1.00
H2       0.87058    0.53045    0.75140   1.00
C5       0.88851    0.53197    0.69011   1.00
H2       0.91850    0.54334    0.69492   1.00
C5       0.76647    0.62406    0.36773   1.00
H2       0.73860    0.63036    0.35245   1.00
H2       0.75979    0.60054    0.38901   1.00
C5       0.79722    0.60996    0.33781   1.00
H2       0.79318    0.57843    0.33110   1.00
H2       0.82714    0.61453    0.34960   1.00
O_3      0.82069    0.74705    0.52000   1.00
C4       0.74958    0.75015    0.47900   1.00
C3c      0.74749    0.71529    0.45757   1.00
H1       0.74572    0.68769    0.47275   1.00
C3d      0.75130    0.78583    0.45865   1.00
C3       0.74820    0.71534    0.41646   1.00
O2       0.74126    0.68061    0.39752   1.00
C3       0.75276    0.78594    0.41773   1.00
H1       0.75548    0.81392    0.40343   1.00
C2       0.75111    0.75092    0.39561   1.00
C5       0.83992    0.78347    0.52121   1.00
H2       0.84682    0.79273    0.55162   1.00
H2       0.82185    0.80674    0.50734   1.00
C5       0.87794    0.77933    0.49878   1.00
H2       0.87113    0.76902    0.46871   1.00
H2       0.89590    0.75629    0.51309   1.00
C5       0.90015    0.81816    0.49746   1.00
H2       0.90681    0.82877    0.52740   1.00
H2       0.88280    0.84083    0.48197   1.00
H2       0.92825    0.81436    0.48170   1.00
C5       0.71961    0.83590    0.48895   1.00
C5       0.77702    0.66174    0.38930   1.00
H2       0.70397    0.81585    0.50912   1.00
H2       0.70084    0.84120    0.46288   1.00
H2       0.79270    0.65489    0.41700   1.00
H2       0.79693    0.68009    0.37105   1.00
H2       0.79428    0.62583    0.30945   1.00
H2       0.68370    0.86932    0.55750   1.00
H2       0.66426    0.88924    0.51234   1.00
C2       0.75198    0.75164    0.60395   1.00
C3       0.71592    0.75112    0.58403   1.00
O2       0.68190    0.76079    0.60326   1.00
C3       0.78674    0.74971    0.58174   1.00
H1       0.81477    0.74904    0.59615   1.00
C3a      0.71538    0.74973    0.54287   1.00
H1       0.68762    0.75160    0.52798   1.00
C3b      0.78612    0.74959    0.54078   1.00
C4       0.75028    0.74968    0.52100   1.00
O_3      0.75638    0.82072    0.47833   1.00
C5       0.66076    0.72678    0.61280   1.00
H2       0.65303    0.70979    0.58609   1.00
C5       0.62335    0.73995    0.63334   1.00
H2       0.67790    0.70762    0.63274   1.00
H2       0.60207    0.74961    0.61077   1.00
H2       0.63068    0.76623    0.65101   1.00
C5       0.60537    0.70790    0.65931   1.00
H2       0.60111    0.68088    0.64189   1.00
H2       0.57661    0.71739    0.67109   1.00
H2       0.62433    0.70141    0.68506   1.00
C5       0.72659    0.87450    0.50980   1.00
H2       0.73596    0.89654    0.48782   1.00
H2       0.75140    0.87058    0.53045   1.00
C5       0.69011    0.88851    0.53197   1.00
H2       0.69492    0.91850    0.54334   1.00
C5       0.26647    0.37594    1.13227   1.00
H2       0.23860    0.36964    1.14755   1.00
H2       0.25979    0.39946    1.11099   1.00
C5       0.29722    0.39004    1.16219   1.00
H2       0.29318    0.42157    1.16890   1.00
H2       0.32714    0.38547    1.15040   1.00
O_3      0.32069    0.25295    0.98000   1.00
C4       0.24958    0.24985    1.02100   1.00
C3c      0.24749    0.28471    1.04243   1.00
H1       0.24572    0.31231    1.02725   1.00
C3d      0.25130    0.21417    1.04135   1.00
C3       0.24820    0.28466    1.08354   1.00
O2       0.24126    0.31939    1.10248   1.00
C3       0.25276    0.21406    1.08227   1.00
H1       0.25548    0.18608    1.09657   1.00
C2       0.25111    0.24908    1.10439   1.00
C5       0.33992    0.21653    0.97879   1.00
H2       0.34682    0.20727    0.94838   1.00
H2       0.32185    0.19326    0.99266   1.00
C5       0.37794    0.22067    1.00122   1.00
H2       0.37113    0.23098    1.03129   1.00
H2       0.39590    0.24371    0.98691   1.00
C5       0.40015    0.18184    1.00254   1.00
H2       0.40681    0.17123    0.97260   1.00
H2       0.38280    0.15917    1.01803   1.00
H2       0.42825    0.18564    1.01830   1.00
C5       0.21961    0.16410    1.01105   1.00
C5       0.27702    0.33826    1.11070   1.00
H2       0.20397    0.18415    0.99088   1.00
H2       0.20084    0.15880    1.03712   1.00
H2       0.29270    0.34511    1.08300   1.00
H2       0.29693    0.31991    1.12895   1.00
H2       0.29428    0.37417    1.19055   1.00
H2       0.18370    0.13068    0.94250   1.00
H2       0.16426    0.11076    0.98766   1.00
C2       0.25198    0.24836    0.89605   1.00
C3       0.21592    0.24888    0.91597   1.00
O2       0.18190    0.23921    0.89674   1.00
C3       0.28674    0.25029    0.91826   1.00
H1       0.31477    0.25096    0.90385   1.00
C3a      0.21538    0.25027    0.95713   1.00
H1       0.18762    0.24840    0.97202   1.00
C3b      0.28612    0.25041    0.95922   1.00
C4       0.25028    0.25032    0.97900   1.00
O_3      0.25638    0.17928    1.02167   1.00
C5       0.16076    0.27322    0.88720   1.00
H2       0.15303    0.29021    0.91391   1.00
C5       0.12335    0.26005    0.86666   1.00
H2       0.17790    0.29238    0.86726   1.00
H2       0.10207    0.25039    0.88923   1.00
H2       0.13068    0.23377    0.84899   1.00
C5       0.10537    0.29210    0.84069   1.00
H2       0.10111    0.31912    0.85811   1.00
H2       0.07661    0.28261    0.82891   1.00
H2       0.12433    0.29859    0.81494   1.00
C5       0.22659    0.12550    0.99020   1.00
H2       0.23596    0.10346    1.01218   1.00
H2       0.25140    0.12942    0.96955   1.00
C5       0.19011    0.11149    0.96803   1.00
H2       0.19492    0.08150    0.95666   1.00
C5       0.37594    0.63227    0.76647   1.00
H2       0.36964    0.64755    0.73860   1.00
H2       0.39946    0.61099    0.75979   1.00
C5       0.39004    0.66219    0.79722   1.00
H2       0.42157    0.66890    0.79318   1.00
H2       0.38547    0.65040    0.82714   1.00
O_3      0.25295    0.48000    0.82069   1.00
C4       0.24985    0.52100    0.74958   1.00
C3c      0.28471    0.54243    0.74749   1.00
H1       0.31231    0.52725    0.74572   1.00
C3d      0.21417    0.54135    0.75130   1.00
C3       0.28466    0.58354    0.74820   1.00
O2       0.31939    0.60248    0.74126   1.00
C3       0.21406    0.58227    0.75276   1.00
H1       0.18608    0.59657    0.75548   1.00
C2       0.24908    0.60439    0.75111   1.00
C5       0.21653    0.47879    0.83992   1.00
H2       0.20727    0.44838    0.84682   1.00
H2       0.19326    0.49266    0.82185   1.00
C5       0.22067    0.50122    0.87794   1.00
H2       0.23098    0.53129    0.87113   1.00
H2       0.24371    0.48691    0.89590   1.00
C5       0.18184    0.50254    0.90015   1.00
H2       0.17123    0.47260    0.90681   1.00
H2       0.15917    0.51803    0.88280   1.00
H2       0.18564    0.51830    0.92825   1.00
C5       0.16410    0.51105    0.71961   1.00
C5       0.33826    0.61070    0.77702   1.00
H2       0.18415    0.49088    0.70397   1.00
H2       0.15880    0.53712    0.70084   1.00
H2       0.34511    0.58300    0.79270   1.00
H2       0.31991    0.62895    0.79693   1.00
H2       0.37417    0.69055    0.79428   1.00
H2       0.13068    0.44250    0.68370   1.00
H2       0.11076    0.48766    0.66426   1.00
C2       0.24836    0.39605    0.75198   1.00
C3       0.24888    0.41597    0.71592   1.00
O2       0.23921    0.39674    0.68190   1.00
C3       0.25029    0.41826    0.78674   1.00
H1       0.25096    0.40385    0.81477   1.00
C3a      0.25027    0.45713    0.71538   1.00
H1       0.24840    0.47202    0.68762   1.00
C3b      0.25041    0.45922    0.78612   1.00
C4       0.25032    0.47900    0.75028   1.00
O_3      0.17928    0.52167    0.75638   1.00
C5       0.27322    0.38720    0.66076   1.00
H2       0.29021    0.41391    0.65303   1.00
C5       0.26005    0.36666    0.62335   1.00
H2       0.29238    0.36726    0.67790   1.00
H2       0.25039    0.38923    0.60207   1.00
H2       0.23377    0.34899    0.63068   1.00
C5       0.29210    0.34069    0.60537   1.00
H2       0.31912    0.35811    0.60111   1.00
H2       0.28261    0.32891    0.57661   1.00
H2       0.29859    0.31494    0.62433   1.00
C5       0.12550    0.49020    0.72659   1.00
H2       0.10346    0.51218    0.73596   1.00
H2       0.12942    0.46955    0.75140   1.00
C5       0.11149    0.46803    0.69011   1.00
H2       0.08150    0.45666    0.69492   1.00
C5       -0.13227   0.26647    0.62406   1.00
H2       -0.14755   0.23860    0.63036   1.00
H2       -0.11099   0.25979    0.60054   1.00
C5       -0.16219   0.29722    0.60996   1.00
H2       -0.16890   0.29318    0.57843   1.00
H2       -0.15040   0.32714    0.61453   1.00
O_3      0.02000    0.32069    0.74705   1.00
C4       -0.02100   0.24958    0.75015   1.00
C3c      -0.04243   0.24749    0.71529   1.00
H1       -0.02725   0.24572    0.68769   1.00
C3d      -0.04135   0.25130    0.78583   1.00
C3       -0.08354   0.24820    0.71534   1.00
O2       -0.10248   0.24126    0.68061   1.00
C3       -0.08227   0.25276    0.78594   1.00
H1       -0.09657   0.25548    0.81392   1.00
C2       -0.10439   0.25111    0.75092   1.00
C5       0.02121    0.33992    0.78347   1.00
H2       0.05162    0.34682    0.79273   1.00
H2       0.00734    0.32185    0.80674   1.00
C5       -0.00122   0.37794    0.77933   1.00
H2       -0.03129   0.37113    0.76902   1.00
H2       0.01309    0.39590    0.75629   1.00
C5       -0.00254   0.40015    0.81816   1.00
H2       0.02740    0.40681    0.82877   1.00
H2       -0.01803   0.38280    0.84083   1.00
H2       -0.01830   0.42825    0.81436   1.00
C5       -0.01105   0.21961    0.83590   1.00
C5       -0.11070   0.27702    0.66174   1.00
H2       0.00912    0.20397    0.81585   1.00
H2       -0.03712   0.20084    0.84120   1.00
H2       -0.08300   0.29270    0.65489   1.00
H2       -0.12895   0.29693    0.68009   1.00
H2       -0.19055   0.29428    0.62583   1.00
H2       0.05750    0.18370    0.86932   1.00
H2       0.01234    0.16426    0.88924   1.00
C2       0.10395    0.25198    0.75164   1.00
C3       0.08403    0.21592    0.75112   1.00
O2       0.10326    0.18190    0.76079   1.00
C3       0.08174    0.28674    0.74971   1.00
H1       0.09615    0.31477    0.74904   1.00
C3a      0.04287    0.21538    0.74973   1.00
H1       0.02798    0.18762    0.75160   1.00
C3b      0.04078    0.28612    0.74959   1.00
C4       0.02100    0.25028    0.74968   1.00
O_3      -0.02167   0.25638    0.82072   1.00
C5       0.11280    0.16076    0.72678   1.00
H2       0.08609    0.15303    0.70979   1.00
C5       0.13334    0.12335    0.73995   1.00
H2       0.13274    0.17790    0.70762   1.00
H2       0.11077    0.10207    0.74961   1.00
H2       0.15101    0.13068    0.76623   1.00
C5       0.15931    0.10537    0.70790   1.00
H2       0.14189    0.10111    0.68088   1.00
H2       0.17109    0.07661    0.71739   1.00
H2       0.18506    0.12433    0.70141   1.00
C5       0.00980    0.22659    0.87450   1.00
H2       -0.01218   0.23596    0.89654   1.00
H2       0.03045    0.25140    0.87058   1.00
C5       0.03197    0.19011    0.88851   1.00
H2       0.04334    0.19492    0.91850   1.00
C5       0.63227    0.26647    0.87594   1.00
H2       0.64755    0.23860    0.86964   1.00
H2       0.61099    0.25979    0.89946   1.00
C5       0.66219    0.29722    0.89004   1.00
H2       0.66890    0.29318    0.92157   1.00
H2       0.65040    0.32714    0.88547   1.00
O_3      0.48000    0.32069    0.75295   1.00
C4       0.52100    0.24958    0.74985   1.00
C3c      0.54243    0.24749    0.78471   1.00
H1       0.52725    0.24572    0.81231   1.00
C3d      0.54135    0.25130    0.71417   1.00
C3       0.58354    0.24820    0.78466   1.00
O2       0.60248    0.24126    0.81939   1.00
C3       0.58227    0.25276    0.71406   1.00
H1       0.59657    0.25548    0.68608   1.00
C2       0.60439    0.25111    0.74908   1.00
C5       0.47879    0.33992    0.71653   1.00
H2       0.44838    0.34682    0.70727   1.00
H2       0.49266    0.32185    0.69326   1.00
C5       0.50122    0.37794    0.72067   1.00
H2       0.53129    0.37113    0.73098   1.00
H2       0.48691    0.39590    0.74371   1.00
C5       0.50254    0.40015    0.68184   1.00
H2       0.47260    0.40681    0.67123   1.00
H2       0.51803    0.38280    0.65917   1.00
H2       0.51830    0.42825    0.68564   1.00
C5       0.51105    0.21961    0.66410   1.00
C5       0.61070    0.27702    0.83826   1.00
H2       0.49088    0.20397    0.68415   1.00
H2       0.53712    0.20084    0.65880   1.00
H2       0.58300    0.29270    0.84511   1.00
H2       0.62895    0.29693    0.81991   1.00
H2       0.69055    0.29428    0.87417   1.00
H2       0.44250    0.18370    0.63068   1.00
H2       0.48766    0.16426    0.61076   1.00
C2       0.39605    0.25198    0.74836   1.00
C3       0.41597    0.21592    0.74888   1.00
O2       0.39674    0.18190    0.73921   1.00
C3       0.41826    0.28674    0.75029   1.00
H1       0.40385    0.31477    0.75096   1.00
C3a      0.45713    0.21538    0.75027   1.00
H1       0.47202    0.18762    0.74840   1.00
C3b      0.45922    0.28612    0.75041   1.00
C4       0.47900    0.25028    0.75032   1.00
O_3      0.52167    0.25638    0.67928   1.00
C5       0.38720    0.16076    0.77322   1.00
H2       0.41391    0.15303    0.79021   1.00
C5       0.36666    0.12335    0.76005   1.00
H2       0.36726    0.17790    0.79238   1.00
H2       0.38923    0.10207    0.75039   1.00
H2       0.34899    0.13068    0.73377   1.00
C5       0.34069    0.10537    0.79210   1.00
H2       0.35811    0.10111    0.81912   1.00
H2       0.32891    0.07661    0.78261   1.00
H2       0.31494    0.12433    0.79859   1.00
C5       0.49020    0.22659    0.62550   1.00
H2       0.51218    0.23596    0.60346   1.00
H2       0.46955    0.25140    0.62942   1.00
C5       0.46803    0.19011    0.61149   1.00
H2       0.45666    0.19492    0.58150   1.00
C5       0.12406    -0.13227   0.76647   1.00
H2       0.13036    -0.14755   0.73860   1.00
H2       0.10054    -0.11099   0.75979   1.00
C5       0.10996    -0.16219   0.79722   1.00
H2       0.07843    -0.16890   0.79318   1.00
H2       0.11453    -0.15040   0.82714   1.00
O_3      0.24705    0.02000    0.82069   1.00
C4       0.25015    -0.02100   0.74958   1.00
C3c      0.21529    -0.04243   0.74749   1.00
H1       0.18769    -0.02725   0.74572   1.00
C3d      0.28583    -0.04135   0.75130   1.00
C3       0.21534    -0.08354   0.74820   1.00
O2       0.18061    -0.10248   0.74126   1.00
C3       0.28594    -0.08227   0.75276   1.00
H1       0.31392    -0.09657   0.75548   1.00
C2       0.25092    -0.10439   0.75111   1.00
C5       0.28347    0.02121    0.83992   1.00
H2       0.29273    0.05162    0.84682   1.00
H2       0.30674    0.00734    0.82185   1.00
C5       0.27933    -0.00122   0.87794   1.00
H2       0.26902    -0.03129   0.87113   1.00
H2       0.25629    0.01309    0.89590   1.00
C5       0.31816    -0.00254   0.90015   1.00
H2       0.32877    0.02740    0.90681   1.00
H2       0.34083    -0.01803   0.88280   1.00
H2       0.31436    -0.01830   0.92825   1.00
C5       0.33590    -0.01105   0.71961   1.00
C5       0.16174    -0.11070   0.77702   1.00
H2       0.31585    0.00912    0.70397   1.00
H2       0.34120    -0.03712   0.70084   1.00
H2       0.15489    -0.08300   0.79270   1.00
H2       0.18009    -0.12895   0.79693   1.00
H2       0.12583    -0.19055   0.79428   1.00
H2       0.36932    0.05750    0.68370   1.00
H2       0.38924    0.01234    0.66426   1.00
C2       0.25164    0.10395    0.75198   1.00
C3       0.25112    0.08403    0.71592   1.00
O2       0.26079    0.10326    0.68190   1.00
C3       0.24971    0.08174    0.78674   1.00
H1       0.24904    0.09615    0.81477   1.00
C3a      0.24973    0.04287    0.71538   1.00
H1       0.25160    0.02798    0.68762   1.00
C3b      0.24959    0.04078    0.78612   1.00
C4       0.24968    0.02100    0.75028   1.00
O_3      0.32072    -0.02167   0.75638   1.00
C5       0.22678    0.11280    0.66076   1.00
H2       0.20979    0.08609    0.65303   1.00
C5       0.23995    0.13334    0.62335   1.00
H2       0.20762    0.13274    0.67790   1.00
H2       0.24961    0.11077    0.60207   1.00
H2       0.26623    0.15101    0.63068   1.00
C5       0.20790    0.15931    0.60537   1.00
H2       0.18088    0.14189    0.60111   1.00
H2       0.21739    0.17109    0.57661   1.00
H2       0.20141    0.18506    0.62433   1.00
C5       0.37450    0.00980    0.72659   1.00
H2       0.39654    -0.01218   0.73596   1.00
H2       0.37058    0.03045    0.75140   1.00
C5       0.38851    0.03197    0.69011   1.00
H2       0.41850    0.04334    0.69492   1.00
C5       0.26647    0.12406    0.36773   1.00
H2       0.23860    0.13036    0.35245   1.00
H2       0.25979    0.10054    0.38901   1.00
C5       0.29722    0.10996    0.33781   1.00
H2       0.29318    0.07843    0.33110   1.00
H2       0.32714    0.11453    0.34960   1.00
O_3      0.32069    0.24705    0.52000   1.00
C4       0.24958    0.25015    0.47900   1.00
C3c      0.24749    0.21529    0.45757   1.00
H1       0.24572    0.18769    0.47275   1.00
C3d      0.25130    0.28583    0.45865   1.00
C3       0.24820    0.21534    0.41646   1.00
O2       0.24126    0.18061    0.39752   1.00
C3       0.25276    0.28594    0.41773   1.00
H1       0.25548    0.31392    0.40343   1.00
C2       0.25111    0.25092    0.39561   1.00
C5       0.33992    0.28347    0.52121   1.00
H2       0.34682    0.29273    0.55162   1.00
H2       0.32185    0.30674    0.50734   1.00
C5       0.37794    0.27933    0.49878   1.00
H2       0.37113    0.26902    0.46871   1.00
H2       0.39590    0.25629    0.51309   1.00
C5       0.40015    0.31816    0.49746   1.00
H2       0.40681    0.32877    0.52740   1.00
H2       0.38280    0.34083    0.48197   1.00
H2       0.42825    0.31436    0.48170   1.00
C5       0.21961    0.33590    0.48895   1.00
C5       0.27702    0.16174    0.38930   1.00
H2       0.20397    0.31585    0.50912   1.00
H2       0.20084    0.34120    0.46288   1.00
H2       0.29270    0.15489    0.41700   1.00
H2       0.29693    0.18009    0.37105   1.00
H2       0.29428    0.12583    0.30945   1.00
H2       0.18370    0.36932    0.55750   1.00
H2       0.16426    0.38924    0.51234   1.00
C2       0.25198    0.25164    0.60395   1.00
C3       0.21592    0.25112    0.58403   1.00
O2       0.18190    0.26079    0.60326   1.00
C3       0.28674    0.24971    0.58174   1.00
H1       0.31477    0.24904    0.59615   1.00
C3a      0.21538    0.24973    0.54287   1.00
H1       0.18762    0.25160    0.52798   1.00
C3b      0.28612    0.24959    0.54078   1.00
C4       0.25028    0.24968    0.52100   1.00
O_3      0.25638    0.32072    0.47833   1.00
C5       0.16076    0.22678    0.61280   1.00
H2       0.15303    0.20979    0.58609   1.00
C5       0.12335    0.23995    0.63334   1.00
H2       0.17790    0.20762    0.63274   1.00
H2       0.10207    0.24961    0.61077   1.00
H2       0.13068    0.26623    0.65101   1.00
C5       0.10537    0.20790    0.65931   1.00
H2       0.10111    0.18088    0.64189   1.00
H2       0.07661    0.21739    0.67109   1.00
H2       0.12433    0.20141    0.68506   1.00
C5       0.22659    0.37450    0.50980   1.00
H2       0.23596    0.39654    0.48782   1.00
H2       0.25140    0.37058    0.53045   1.00
C5       0.19011    0.38851    0.53197   1.00
H2       0.19492    0.41850    0.54334   1.00
C5       0.26647    0.87594    0.63227   1.00
H2       0.23860    0.86964    0.64755   1.00
H2       0.25979    0.89946    0.61099   1.00
C5       0.29722    0.89004    0.66219   1.00
H2       0.29318    0.92157    0.66890   1.00
H2       0.32714    0.88547    0.65040   1.00
O_3      0.32069    0.75295    0.48000   1.00
C4       0.24958    0.74985    0.52100   1.00
C3c      0.24749    0.78471    0.54243   1.00
H1       0.24572    0.81231    0.52725   1.00
C3d      0.25130    0.71417    0.54135   1.00
C3       0.24820    0.78466    0.58354   1.00
O2       0.24126    0.81939    0.60248   1.00
C3       0.25276    0.71406    0.58227   1.00
H1       0.25548    0.68608    0.59657   1.00
C2       0.25111    0.74908    0.60439   1.00
C5       0.33992    0.71653    0.47879   1.00
H2       0.34682    0.70727    0.44838   1.00
H2       0.32185    0.69326    0.49266   1.00
C5       0.37794    0.72067    0.50122   1.00
H2       0.37113    0.73098    0.53129   1.00
H2       0.39590    0.74371    0.48691   1.00
C5       0.40015    0.68184    0.50254   1.00
H2       0.40681    0.67123    0.47260   1.00
H2       0.38280    0.65917    0.51803   1.00
H2       0.42825    0.68564    0.51830   1.00
C5       0.21961    0.66410    0.51105   1.00
C5       0.27702    0.83826    0.61070   1.00
H2       0.20397    0.68415    0.49088   1.00
H2       0.20084    0.65880    0.53712   1.00
H2       0.29270    0.84511    0.58300   1.00
H2       0.29693    0.81991    0.62895   1.00
H2       0.29428    0.87417    0.69055   1.00
H2       0.18370    0.63068    0.44250   1.00
H2       0.16426    0.61076    0.48766   1.00
C2       0.25198    0.74836    0.39605   1.00
C3       0.21592    0.74888    0.41597   1.00
O2       0.18190    0.73921    0.39674   1.00
C3       0.28674    0.75029    0.41826   1.00
H1       0.31477    0.75096    0.40385   1.00
C3a      0.21538    0.75027    0.45713   1.00
H1       0.18762    0.74840    0.47202   1.00
C3b      0.28612    0.75041    0.45922   1.00
C4       0.25028    0.75032    0.47900   1.00
O_3      0.25638    0.67928    0.52167   1.00
C5       0.16076    0.77322    0.38720   1.00
H2       0.15303    0.79021    0.41391   1.00
C5       0.12335    0.76005    0.36666   1.00
H2       0.17790    0.79238    0.36726   1.00
H2       0.10207    0.75039    0.38923   1.00
H2       0.13068    0.73377    0.34899   1.00
C5       0.10537    0.79210    0.34069   1.00
H2       0.10111    0.81912    0.35811   1.00
H2       0.07661    0.78261    0.32891   1.00
H2       0.12433    0.79859    0.31494   1.00
C5       0.22659    0.62550    0.49020   1.00
H2       0.23596    0.60346    0.51218   1.00
H2       0.25140    0.62942    0.46955   1.00
C5       0.19011    0.61149    0.46803   1.00
H2       0.19492    0.58150    0.45666   1.00
C5       0.37594    1.13227    0.26647   1.00
H2       0.36964    1.14755    0.23860   1.00
H2       0.39946    1.11099    0.25979   1.00
C5       0.39004    1.16219    0.29722   1.00
H2       0.42157    1.16890    0.29318   1.00
H2       0.38547    1.15040    0.32714   1.00
O_3      0.25295    0.98000    0.32069   1.00
C4       0.24985    1.02100    0.24958   1.00
C3c      0.28471    1.04243    0.24749   1.00
H1       0.31231    1.02725    0.24572   1.00
C3d      0.21417    1.04135    0.25130   1.00
C3       0.28466    1.08354    0.24820   1.00
O2       0.31939    1.10248    0.24126   1.00
C3       0.21406    1.08227    0.25276   1.00
H1       0.18608    1.09657    0.25548   1.00
C2       0.24908    1.10439    0.25111   1.00
C5       0.21653    0.97879    0.33992   1.00
H2       0.20727    0.94838    0.34682   1.00
H2       0.19326    0.99266    0.32185   1.00
C5       0.22067    1.00122    0.37794   1.00
H2       0.23098    1.03129    0.37113   1.00
H2       0.24371    0.98691    0.39590   1.00
C5       0.18184    1.00254    0.40015   1.00
H2       0.17123    0.97260    0.40681   1.00
H2       0.15917    1.01803    0.38280   1.00
H2       0.18564    1.01830    0.42825   1.00
C5       0.16410    1.01105    0.21961   1.00
C5       0.33826    1.11070    0.27702   1.00
H2       0.18415    0.99088    0.20397   1.00
H2       0.15880    1.03712    0.20084   1.00
H2       0.34511    1.08300    0.29270   1.00
H2       0.31991    1.12895    0.29693   1.00
H2       0.37417    1.19055    0.29428   1.00
H2       0.13068    0.94250    0.18370   1.00
H2       0.11076    0.98766    0.16426   1.00
C2       0.24836    0.89605    0.25198   1.00
C3       0.24888    0.91597    0.21592   1.00
O2       0.23921    0.89674    0.18190   1.00
C3       0.25029    0.91826    0.28674   1.00
H1       0.25096    0.90385    0.31477   1.00
C3a      0.25027    0.95713    0.21538   1.00
H1       0.24840    0.97202    0.18762   1.00
C3b      0.25041    0.95922    0.28612   1.00
C4       0.25032    0.97900    0.25028   1.00
O_3      0.17928    1.02167    0.25638   1.00
C5       0.27322    0.88720    0.16076   1.00
H2       0.29021    0.91391    0.15303   1.00
C5       0.26005    0.86666    0.12335   1.00
H2       0.29238    0.86726    0.17790   1.00
H2       0.25039    0.88923    0.10207   1.00
H2       0.23377    0.84899    0.13068   1.00
C5       0.29210    0.84069    0.10537   1.00
H2       0.31912    0.85811    0.10111   1.00
H2       0.28261    0.82891    0.07661   1.00
H2       0.29859    0.81494    0.12433   1.00
C5       0.12550    0.99020    0.22659   1.00
H2       0.10346    1.01218    0.23596   1.00
H2       0.12942    0.96955    0.25140   1.00
C5       0.11149    0.96803    0.19011   1.00
H2       0.08150    0.95666    0.19492   1.00
C5       -0.13227   0.76647    0.12406   1.00
H2       -0.14755   0.73860    0.13036   1.00
H2       -0.11099   0.75979    0.10054   1.00
C5       -0.16219   0.79722    0.10996   1.00
H2       -0.16890   0.79318    0.07843   1.00
H2       -0.15040   0.82714    0.11453   1.00
O_3      0.02000    0.82069    0.24705   1.00
C4       -0.02100   0.74958    0.25015   1.00
C3c      -0.04243   0.74749    0.21529   1.00
H1       -0.02725   0.74572    0.18769   1.00
C3d      -0.04135   0.75130    0.28583   1.00
C3       -0.08354   0.74820    0.21534   1.00
O2       -0.10248   0.74126    0.18061   1.00
C3       -0.08227   0.75276    0.28594   1.00
H1       -0.09657   0.75548    0.31392   1.00
C2       -0.10439   0.75111    0.25092   1.00
C5       0.02121    0.83992    0.28347   1.00
H2       0.05162    0.84682    0.29273   1.00
H2       0.00734    0.82185    0.30674   1.00
C5       -0.00122   0.87794    0.27933   1.00
H2       -0.03129   0.87113    0.26902   1.00
H2       0.01309    0.89590    0.25629   1.00
C5       -0.00254   0.90015    0.31816   1.00
H2       0.02740    0.90681    0.32877   1.00
H2       -0.01803   0.88280    0.34083   1.00
H2       -0.01830   0.92825    0.31436   1.00
C5       -0.01105   0.71961    0.33590   1.00
C5       -0.11070   0.77702    0.16174   1.00
H2       0.00912    0.70397    0.31585   1.00
H2       -0.03712   0.70084    0.34120   1.00
H2       -0.08300   0.79270    0.15489   1.00
H2       -0.12895   0.79693    0.18009   1.00
H2       -0.19055   0.79428    0.12583   1.00
H2       0.05750    0.68370    0.36932   1.00
H2       0.01234    0.66426    0.38924   1.00
C2       0.10395    0.75198    0.25164   1.00
C3       0.08403    0.71592    0.25112   1.00
O2       0.10326    0.68190    0.26079   1.00
C3       0.08174    0.78674    0.24971   1.00
H1       0.09615    0.81477    0.24904   1.00
C3a      0.04287    0.71538    0.24973   1.00
H1       0.02798    0.68762    0.25160   1.00
C3b      0.04078    0.78612    0.24959   1.00
C4       0.02100    0.75028    0.24968   1.00
O_3      -0.02167   0.75638    0.32072   1.00
C5       0.11280    0.66076    0.22678   1.00
H2       0.08609    0.65303    0.20979   1.00
C5       0.13334    0.62335    0.23995   1.00
H2       0.13274    0.67790    0.20762   1.00
H2       0.11077    0.60207    0.24961   1.00
H2       0.15101    0.63068    0.26623   1.00
C5       0.15931    0.60537    0.20790   1.00
H2       0.14189    0.60111    0.18088   1.00
H2       0.17109    0.57661    0.21739   1.00
H2       0.18506    0.62433    0.20141   1.00
C5       0.00980    0.72659    0.37450   1.00
H2       -0.01218   0.73596    0.39654   1.00
H2       0.03045    0.75140    0.37058   1.00
C5       0.03197    0.69011    0.38851   1.00
H2       0.04334    0.69492    0.41850   1.00
C5       0.63227    0.76647    0.37594   1.00
H2       0.64755    0.73860    0.36964   1.00
H2       0.61099    0.75979    0.39946   1.00
C5       0.66219    0.79722    0.39004   1.00
H2       0.66890    0.79318    0.42157   1.00
H2       0.65040    0.82714    0.38547   1.00
O_3      0.48000    0.82069    0.25295   1.00
C4       0.52100    0.74958    0.24985   1.00
C3c      0.54243    0.74749    0.28471   1.00
H1       0.52725    0.74572    0.31231   1.00
C3d      0.54135    0.75130    0.21417   1.00
C3       0.58354    0.74820    0.28466   1.00
O2       0.60248    0.74126    0.31939   1.00
C3       0.58227    0.75276    0.21406   1.00
H1       0.59657    0.75548    0.18608   1.00
C2       0.60439    0.75111    0.24908   1.00
C5       0.47879    0.83992    0.21653   1.00
H2       0.44838    0.84682    0.20727   1.00
H2       0.49266    0.82185    0.19326   1.00
C5       0.50122    0.87794    0.22067   1.00
H2       0.53129    0.87113    0.23098   1.00
H2       0.48691    0.89590    0.24371   1.00
C5       0.50254    0.90015    0.18184   1.00
H2       0.47260    0.90681    0.17123   1.00
H2       0.51803    0.88280    0.15917   1.00
H2       0.51830    0.92825    0.18564   1.00
C5       0.51105    0.71961    0.16410   1.00
C5       0.61070    0.77702    0.33826   1.00
H2       0.49088    0.70397    0.18415   1.00
H2       0.53712    0.70084    0.15880   1.00
H2       0.58300    0.79270    0.34511   1.00
H2       0.62895    0.79693    0.31991   1.00
H2       0.69055    0.79428    0.37417   1.00
H2       0.44250    0.68370    0.13068   1.00
H2       0.48766    0.66426    0.11076   1.00
C2       0.39605    0.75198    0.24836   1.00
C3       0.41597    0.71592    0.24888   1.00
O2       0.39674    0.68190    0.23921   1.00
C3       0.41826    0.78674    0.25029   1.00
H1       0.40385    0.81477    0.25096   1.00
C3a      0.45713    0.71538    0.25027   1.00
H1       0.47202    0.68762    0.24840   1.00
C3b      0.45922    0.78612    0.25041   1.00
C4       0.47900    0.75028    0.25032   1.00
O_3      0.52167    0.75638    0.17928   1.00
C5       0.38720    0.66076    0.27322   1.00
H2       0.41391    0.65303    0.29021   1.00
C5       0.36666    0.62335    0.26005   1.00
H2       0.36726    0.67790    0.29238   1.00
H2       0.38923    0.60207    0.25039   1.00
H2       0.34899    0.63068    0.23377   1.00
C5       0.34069    0.60537    0.29210   1.00
H2       0.35811    0.60111    0.31912   1.00
H2       0.32891    0.57661    0.28261   1.00
H2       0.31494    0.62433    0.29859   1.00
C5       0.49020    0.72659    0.12550   1.00
H2       0.51218    0.73596    0.10346   1.00
H2       0.46955    0.75140    0.12942   1.00
C5       0.46803    0.69011    0.11149   1.00
H2       0.45666    0.69492    0.08150   1.00
C5       0.12406    0.36773    0.26647   1.00
H2       0.13036    0.35245    0.23860   1.00
H2       0.10054    0.38901    0.25979   1.00
C5       0.10996    0.33781    0.29722   1.00
H2       0.07843    0.33110    0.29318   1.00
H2       0.11453    0.34960    0.32714   1.00
O_3      0.24705    0.52000    0.32069   1.00
C4       0.25015    0.47900    0.24958   1.00
C3c      0.21529    0.45757    0.24749   1.00
H1       0.18769    0.47275    0.24572   1.00
C3d      0.28583    0.45865    0.25130   1.00
C3       0.21534    0.41646    0.24820   1.00
O2       0.18061    0.39752    0.24126   1.00
C3       0.28594    0.41773    0.25276   1.00
H1       0.31392    0.40343    0.25548   1.00
C2       0.25092    0.39561    0.25111   1.00
C5       0.28347    0.52121    0.33992   1.00
H2       0.29273    0.55162    0.34682   1.00
H2       0.30674    0.50734    0.32185   1.00
C5       0.27933    0.49878    0.37794   1.00
H2       0.26902    0.46871    0.37113   1.00
H2       0.25629    0.51309    0.39590   1.00
C5       0.31816    0.49746    0.40015   1.00
H2       0.32877    0.52740    0.40681   1.00
H2       0.34083    0.48197    0.38280   1.00
H2       0.31436    0.48170    0.42825   1.00
C5       0.33590    0.48895    0.21961   1.00
C5       0.16174    0.38930    0.27702   1.00
H2       0.31585    0.50912    0.20397   1.00
H2       0.34120    0.46288    0.20084   1.00
H2       0.15489    0.41700    0.29270   1.00
H2       0.18009    0.37105    0.29693   1.00
H2       0.12583    0.30945    0.29428   1.00
H2       0.36932    0.55750    0.18370   1.00
H2       0.38924    0.51234    0.16426   1.00
C2       0.25164    0.60395    0.25198   1.00
C3       0.25112    0.58403    0.21592   1.00
O2       0.26079    0.60326    0.18190   1.00
C3       0.24971    0.58174    0.28674   1.00
H1       0.24904    0.59615    0.31477   1.00
C3a      0.24973    0.54287    0.21538   1.00
H1       0.25160    0.52798    0.18762   1.00
C3b      0.24959    0.54078    0.28612   1.00
C4       0.24968    0.52100    0.25028   1.00
O_3      0.32072    0.47833    0.25638   1.00
C5       0.22678    0.61280    0.16076   1.00
H2       0.20979    0.58609    0.15303   1.00
C5       0.23995    0.63334    0.12335   1.00
H2       0.20762    0.63274    0.17790   1.00
H2       0.24961    0.61077    0.10207   1.00
H2       0.26623    0.65101    0.13068   1.00
C5       0.20790    0.65931    0.10537   1.00
H2       0.18088    0.64189    0.10111   1.00
H2       0.21739    0.67109    0.07661   1.00
H2       0.20141    0.68506    0.12433   1.00
C5       0.37450    0.50980    0.22659   1.00
H2       0.39654    0.48782    0.23596   1.00
H2       0.37058    0.53045    0.25140   1.00
C5       0.38851    0.53197    0.19011   1.00
H2       0.41850    0.54334    0.19492   1.00
C5       0.26647    0.62406    -0.13227   1.00
H2       0.23860    0.63036    -0.14755   1.00
H2       0.25979    0.60054    -0.11099   1.00
C5       0.29722    0.60996    -0.16219   1.00
H2       0.29318    0.57843    -0.16890   1.00
H2       0.32714    0.61453    -0.15040   1.00
O_3      0.32069    0.74705    0.02000   1.00
C4       0.24958    0.75015    -0.02100   1.00
C3c      0.24749    0.71529    -0.04243   1.00
H1       0.24572    0.68769    -0.02725   1.00
C3d      0.25130    0.78583    -0.04135   1.00
C3       0.24820    0.71534    -0.08354   1.00
O2       0.24126    0.68061    -0.10248   1.00
C3       0.25276    0.78594    -0.08227   1.00
H1       0.25548    0.81392    -0.09657   1.00
C2       0.25111    0.75092    -0.10439   1.00
C5       0.33992    0.78347    0.02121   1.00
H2       0.34682    0.79273    0.05162   1.00
H2       0.32185    0.80674    0.00734   1.00
C5       0.37794    0.77933    -0.00122   1.00
H2       0.37113    0.76902    -0.03129   1.00
H2       0.39590    0.75629    0.01309   1.00
C5       0.40015    0.81816    -0.00254   1.00
H2       0.40681    0.82877    0.02740   1.00
H2       0.38280    0.84083    -0.01803   1.00
H2       0.42825    0.81436    -0.01830   1.00
C5       0.21961    0.83590    -0.01105   1.00
C5       0.27702    0.66174    -0.11070   1.00
H2       0.20397    0.81585    0.00912   1.00
H2       0.20084    0.84120    -0.03712   1.00
H2       0.29270    0.65489    -0.08300   1.00
H2       0.29693    0.68009    -0.12895   1.00
H2       0.29428    0.62583    -0.19055   1.00
H2       0.18370    0.86932    0.05750   1.00
H2       0.16426    0.88924    0.01234   1.00
C2       0.25198    0.75164    0.10395   1.00
C3       0.21592    0.75112    0.08403   1.00
O2       0.18190    0.76079    0.10326   1.00
C3       0.28674    0.74971    0.08174   1.00
H1       0.31477    0.74904    0.09615   1.00
C3a      0.21538    0.74973    0.04287   1.00
H1       0.18762    0.75160    0.02798   1.00
C3b      0.28612    0.74959    0.04078   1.00
C4       0.25028    0.74968    0.02100   1.00
O_3      0.25638    0.82072    -0.02167   1.00
C5       0.16076    0.72678    0.11280   1.00
H2       0.15303    0.70979    0.08609   1.00
C5       0.12335    0.73995    0.13334   1.00
H2       0.17790    0.70762    0.13274   1.00
H2       0.10207    0.74961    0.11077   1.00
H2       0.13068    0.76623    0.15101   1.00
C5       0.10537    0.70790    0.15931   1.00
H2       0.10111    0.68088    0.14189   1.00
H2       0.07661    0.71739    0.17109   1.00
H2       0.12433    0.70141    0.18506   1.00
C5       0.22659    0.87450    0.00980   1.00
H2       0.23596    0.89654    -0.01218   1.00
H2       0.25140    0.87058    0.03045   1.00
C5       0.19011    0.88851    0.03197   1.00
H2       0.19492    0.91850    0.04334   1.00
C5       0.76647    0.37594    0.63227   1.00
H2       0.73860    0.36964    0.64755   1.00
H2       0.75979    0.39946    0.61099   1.00
C5       0.79722    0.39004    0.66219   1.00
H2       0.79318    0.42157    0.66890   1.00
H2       0.82714    0.38547    0.65040   1.00
O_3      0.82069    0.25295    0.48000   1.00
C4       0.74958    0.24985    0.52100   1.00
C3c      0.74749    0.28471    0.54243   1.00
H1       0.74572    0.31231    0.52725   1.00
C3d      0.75130    0.21417    0.54135   1.00
C3       0.74820    0.28466    0.58354   1.00
O2       0.74126    0.31939    0.60248   1.00
C3       0.75276    0.21406    0.58227   1.00
H1       0.75548    0.18608    0.59657   1.00
C2       0.75111    0.24908    0.60439   1.00
C5       0.83992    0.21653    0.47879   1.00
H2       0.84682    0.20727    0.44838   1.00
H2       0.82185    0.19326    0.49266   1.00
C5       0.87794    0.22067    0.50122   1.00
H2       0.87113    0.23098    0.53129   1.00
H2       0.89590    0.24371    0.48691   1.00
C5       0.90015    0.18184    0.50254   1.00
H2       0.90681    0.17123    0.47260   1.00
H2       0.88280    0.15917    0.51803   1.00
H2       0.92825    0.18564    0.51830   1.00
C5       0.71961    0.16410    0.51105   1.00
C5       0.77702    0.33826    0.61070   1.00
H2       0.70397    0.18415    0.49088   1.00
H2       0.70084    0.15880    0.53712   1.00
H2       0.79270    0.34511    0.58300   1.00
H2       0.79693    0.31991    0.62895   1.00
H2       0.79428    0.37417    0.69055   1.00
H2       0.68370    0.13068    0.44250   1.00
H2       0.66426    0.11076    0.48766   1.00
C2       0.75198    0.24836    0.39605   1.00
C3       0.71592    0.24888    0.41597   1.00
O2       0.68190    0.23921    0.39674   1.00
C3       0.78674    0.25029    0.41826   1.00
H1       0.81477    0.25096    0.40385   1.00
C3a      0.71538    0.25027    0.45713   1.00
H1       0.68762    0.24840    0.47202   1.00
C3b      0.78612    0.25041    0.45922   1.00
C4       0.75028    0.25032    0.47900   1.00
O_3      0.75638    0.17928    0.52167   1.00
C5       0.66076    0.27322    0.38720   1.00
H2       0.65303    0.29021    0.41391   1.00
C5       0.62335    0.26005    0.36666   1.00
H2       0.67790    0.29238    0.36726   1.00
H2       0.60207    0.25039    0.38923   1.00
H2       0.63068    0.23377    0.34899   1.00
C5       0.60537    0.29210    0.34069   1.00
H2       0.60111    0.31912    0.35811   1.00
H2       0.57661    0.28261    0.32891   1.00
H2       0.62433    0.29859    0.31494   1.00
C5       0.72659    0.12550    0.49020   1.00
H2       0.73596    0.10346    0.51218   1.00
H2       0.75140    0.12942    0.46955   1.00
C5       0.69011    0.11149    0.46803   1.00
H2       0.69492    0.08150    0.45666   1.00
C5       0.87594    0.63227    0.26647   1.00
H2       0.86964    0.64755    0.23860   1.00
H2       0.89946    0.61099    0.25979   1.00
C5       0.89004    0.66219    0.29722   1.00
H2       0.92157    0.66890    0.29318   1.00
H2       0.88547    0.65040    0.32714   1.00
O_3      0.75295    0.48000    0.32069   1.00
C4       0.74985    0.52100    0.24958   1.00
C3c      0.78471    0.54243    0.24749   1.00
H1       0.81231    0.52725    0.24572   1.00
C3d      0.71417    0.54135    0.25130   1.00
C3       0.78466    0.58354    0.24820   1.00
O2       0.81939    0.60248    0.24126   1.00
C3       0.71406    0.58227    0.25276   1.00
H1       0.68608    0.59657    0.25548   1.00
C2       0.74908    0.60439    0.25111   1.00
C5       0.71653    0.47879    0.33992   1.00
H2       0.70727    0.44838    0.34682   1.00
H2       0.69326    0.49266    0.32185   1.00
C5       0.72067    0.50122    0.37794   1.00
H2       0.73098    0.53129    0.37113   1.00
H2       0.74371    0.48691    0.39590   1.00
C5       0.68184    0.50254    0.40015   1.00
H2       0.67123    0.47260    0.40681   1.00
H2       0.65917    0.51803    0.38280   1.00
H2       0.68564    0.51830    0.42825   1.00
C5       0.66410    0.51105    0.21961   1.00
C5       0.83826    0.61070    0.27702   1.00
H2       0.68415    0.49088    0.20397   1.00
H2       0.65880    0.53712    0.20084   1.00
H2       0.84511    0.58300    0.29270   1.00
H2       0.81991    0.62895    0.29693   1.00
H2       0.87417    0.69055    0.29428   1.00
H2       0.63068    0.44250    0.18370   1.00
H2       0.61076    0.48766    0.16426   1.00
C2       0.74836    0.39605    0.25198   1.00
C3       0.74888    0.41597    0.21592   1.00
O2       0.73921    0.39674    0.18190   1.00
C3       0.75029    0.41826    0.28674   1.00
H1       0.75096    0.40385    0.31477   1.00
C3a      0.75027    0.45713    0.21538   1.00
H1       0.74840    0.47202    0.18762   1.00
C3b      0.75041    0.45922    0.28612   1.00
C4       0.75032    0.47900    0.25028   1.00
O_3      0.67928    0.52167    0.25638   1.00
C5       0.77322    0.38720    0.16076   1.00
H2       0.79021    0.41391    0.15303   1.00
C5       0.76005    0.36666    0.12335   1.00
H2       0.79238    0.36726    0.17790   1.00
H2       0.75039    0.38923    0.10207   1.00
H2       0.73377    0.34899    0.13068   1.00
C5       0.79210    0.34069    0.10537   1.00
H2       0.81912    0.35811    0.10111   1.00
H2       0.78261    0.32891    0.07661   1.00
H2       0.79859    0.31494    0.12433   1.00
C5       0.62550    0.49020    0.22659   1.00
H2       0.60346    0.51218    0.23596   1.00
H2       0.62942    0.46955    0.25140   1.00
C5       0.61149    0.46803    0.19011   1.00
H2       0.58150    0.45666    0.19492   1.00
C5       0.36773    0.26647    0.12406   1.00
H2       0.35245    0.23860    0.13036   1.00
H2       0.38901    0.25979    0.10054   1.00
C5       0.33781    0.29722    0.10996   1.00
H2       0.33110    0.29318    0.07843   1.00
H2       0.34960    0.32714    0.11453   1.00
O_3      0.52000    0.32069    0.24705   1.00
C4       0.47900    0.24958    0.25015   1.00
C3c      0.45757    0.24749    0.21529   1.00
H1       0.47275    0.24572    0.18769   1.00
C3d      0.45865    0.25130    0.28583   1.00
C3       0.41646    0.24820    0.21534   1.00
O2       0.39752    0.24126    0.18061   1.00
C3       0.41773    0.25276    0.28594   1.00
H1       0.40343    0.25548    0.31392   1.00
C2       0.39561    0.25111    0.25092   1.00
C5       0.52121    0.33992    0.28347   1.00
H2       0.55162    0.34682    0.29273   1.00
H2       0.50734    0.32185    0.30674   1.00
C5       0.49878    0.37794    0.27933   1.00
H2       0.46871    0.37113    0.26902   1.00
H2       0.51309    0.39590    0.25629   1.00
C5       0.49746    0.40015    0.31816   1.00
H2       0.52740    0.40681    0.32877   1.00
H2       0.48197    0.38280    0.34083   1.00
H2       0.48170    0.42825    0.31436   1.00
C5       0.48895    0.21961    0.33590   1.00
C5       0.38930    0.27702    0.16174   1.00
H2       0.50912    0.20397    0.31585   1.00
H2       0.46288    0.20084    0.34120   1.00
H2       0.41700    0.29270    0.15489   1.00
H2       0.37105    0.29693    0.18009   1.00
H2       0.30945    0.29428    0.12583   1.00
H2       0.55750    0.18370    0.36932   1.00
H2       0.51234    0.16426    0.38924   1.00
C2       0.60395    0.25198    0.25164   1.00
C3       0.58403    0.21592    0.25112   1.00
O2       0.60326    0.18190    0.26079   1.00
C3       0.58174    0.28674    0.24971   1.00
H1       0.59615    0.31477    0.24904   1.00
C3a      0.54287    0.21538    0.24973   1.00
H1       0.52798    0.18762    0.25160   1.00
C3b      0.54078    0.28612    0.24959   1.00
C4       0.52100    0.25028    0.24968   1.00
O_3      0.47833    0.25638    0.32072   1.00
C5       0.61280    0.16076    0.22678   1.00
H2       0.58609    0.15303    0.20979   1.00
C5       0.63334    0.12335    0.23995   1.00
H2       0.63274    0.17790    0.20762   1.00
H2       0.61077    0.10207    0.24961   1.00
H2       0.65101    0.13068    0.26623   1.00
C5       0.65931    0.10537    0.20790   1.00
H2       0.64189    0.10111    0.18088   1.00
H2       0.67109    0.07661    0.21739   1.00
H2       0.68506    0.12433    0.20141   1.00
C5       0.50980    0.22659    0.37450   1.00
H2       0.48782    0.23596    0.39654   1.00
H2       0.53045    0.25140    0.37058   1.00
C5       0.53197    0.19011    0.38851   1.00
H2       0.54334    0.19492    0.41850   1.00
C5       1.13227    0.26647    0.37594   1.00
H2       1.14755    0.23860    0.36964   1.00
H2       1.11099    0.25979    0.39946   1.00
C5       1.16219    0.29722    0.39004   1.00
H2       1.16890    0.29318    0.42157   1.00
H2       1.15040    0.32714    0.38547   1.00
O_3      0.98000    0.32069    0.25295   1.00
C4       1.02100    0.24958    0.24985   1.00
C3c      1.04243    0.24749    0.28471   1.00
H1       1.02725    0.24572    0.31231   1.00
C3d      1.04135    0.25130    0.21417   1.00
C3       1.08354    0.24820    0.28466   1.00
O2       1.10248    0.24126    0.31939   1.00
C3       1.08227    0.25276    0.21406   1.00
H1       1.09657    0.25548    0.18608   1.00
C2       1.10439    0.25111    0.24908   1.00
C5       0.97879    0.33992    0.21653   1.00
H2       0.94838    0.34682    0.20727   1.00
H2       0.99266    0.32185    0.19326   1.00
C5       1.00122    0.37794    0.22067   1.00
H2       1.03129    0.37113    0.23098   1.00
H2       0.98691    0.39590    0.24371   1.00
C5       1.00254    0.40015    0.18184   1.00
H2       0.97260    0.40681    0.17123   1.00
H2       1.01803    0.38280    0.15917   1.00
H2       1.01830    0.42825    0.18564   1.00
C5       1.01105    0.21961    0.16410   1.00
C5       1.11070    0.27702    0.33826   1.00
H2       0.99088    0.20397    0.18415   1.00
H2       1.03712    0.20084    0.15880   1.00
H2       1.08300    0.29270    0.34511   1.00
H2       1.12895    0.29693    0.31991   1.00
H2       1.19055    0.29428    0.37417   1.00
H2       0.94250    0.18370    0.13068   1.00
H2       0.98766    0.16426    0.11076   1.00
C2       0.89605    0.25198    0.24836   1.00
C3       0.91597    0.21592    0.24888   1.00
O2       0.89674    0.18190    0.23921   1.00
C3       0.91826    0.28674    0.25029   1.00
H1       0.90385    0.31477    0.25096   1.00
C3a      0.95713    0.21538    0.25027   1.00
H1       0.97202    0.18762    0.24840   1.00
C3b      0.95922    0.28612    0.25041   1.00
C4       0.97900    0.25028    0.25032   1.00
O_3      1.02167    0.25638    0.17928   1.00
C5       0.88720    0.16076    0.27322   1.00
H2       0.91391    0.15303    0.29021   1.00
C5       0.86666    0.12335    0.26005   1.00
H2       0.86726    0.17790    0.29238   1.00
H2       0.88923    0.10207    0.25039   1.00
H2       0.84899    0.13068    0.23377   1.00
C5       0.84069    0.10537    0.29210   1.00
H2       0.85811    0.10111    0.31912   1.00
H2       0.82891    0.07661    0.28261   1.00
H2       0.81494    0.12433    0.29859   1.00
C5       0.99020    0.22659    0.12550   1.00
H2       1.01218    0.23596    0.10346   1.00
H2       0.96955    0.25140    0.12942   1.00
C5       0.96803    0.19011    0.11149   1.00
H2       0.95666    0.19492    0.08150   1.00
C5       0.62406    -0.13227   0.26647   1.00
H2       0.63036    -0.14755   0.23860   1.00
H2       0.60054    -0.11099   0.25979   1.00
C5       0.60996    -0.16219   0.29722   1.00
H2       0.57843    -0.16890   0.29318   1.00
H2       0.61453    -0.15040   0.32714   1.00
O_3      0.74705    0.02000    0.32069   1.00
C4       0.75015    -0.02100   0.24958   1.00
C3c      0.71529    -0.04243   0.24749   1.00
H1       0.68769    -0.02725   0.24572   1.00
C3d      0.78583    -0.04135   0.25130   1.00
C3       0.71534    -0.08354   0.24820   1.00
O2       0.68061    -0.10248   0.24126   1.00
C3       0.78594    -0.08227   0.25276   1.00
H1       0.81392    -0.09657   0.25548   1.00
C2       0.75092    -0.10439   0.25111   1.00
C5       0.78347    0.02121    0.33992   1.00
H2       0.79273    0.05162    0.34682   1.00
H2       0.80674    0.00734    0.32185   1.00
C5       0.77933    -0.00122   0.37794   1.00
H2       0.76902    -0.03129   0.37113   1.00
H2       0.75629    0.01309    0.39590   1.00
C5       0.81816    -0.00254   0.40015   1.00
H2       0.82877    0.02740    0.40681   1.00
H2       0.84083    -0.01803   0.38280   1.00
H2       0.81436    -0.01830   0.42825   1.00
C5       0.83590    -0.01105   0.21961   1.00
C5       0.66174    -0.11070   0.27702   1.00
H2       0.81585    0.00912    0.20397   1.00
H2       0.84120    -0.03712   0.20084   1.00
H2       0.65489    -0.08300   0.29270   1.00
H2       0.68009    -0.12895   0.29693   1.00
H2       0.62583    -0.19055   0.29428   1.00
H2       0.86932    0.05750    0.18370   1.00
H2       0.88924    0.01234    0.16426   1.00
C2       0.75164    0.10395    0.25198   1.00
C3       0.75112    0.08403    0.21592   1.00
O2       0.76079    0.10326    0.18190   1.00
C3       0.74971    0.08174    0.28674   1.00
H1       0.74904    0.09615    0.31477   1.00
C3a      0.74973    0.04287    0.21538   1.00
H1       0.75160    0.02798    0.18762   1.00
C3b      0.74959    0.04078    0.28612   1.00
C4       0.74968    0.02100    0.25028   1.00
O_3      0.82072    -0.02167   0.25638   1.00
C5       0.72678    0.11280    0.16076   1.00
H2       0.70979    0.08609    0.15303   1.00
C5       0.73995    0.13334    0.12335   1.00
H2       0.70762    0.13274    0.17790   1.00
H2       0.74961    0.11077    0.10207   1.00
H2       0.76623    0.15101    0.13068   1.00
C5       0.70790    0.15931    0.10537   1.00
H2       0.68088    0.14189    0.10111   1.00
H2       0.71739    0.17109    0.07661   1.00
H2       0.70141    0.18506    0.12433   1.00
C5       0.87450    0.00980    0.22659   1.00
H2       0.89654    -0.01218   0.23596   1.00
H2       0.87058    0.03045    0.25140   1.00
C5       0.88851    0.03197    0.19011   1.00
H2       0.91850    0.04334    0.19492   1.00
C5       0.76647    0.12406    -0.13227   1.00
H2       0.73860    0.13036    -0.14755   1.00
H2       0.75979    0.10054    -0.11099   1.00
C5       0.79722    0.10996    -0.16219   1.00
H2       0.79318    0.07843    -0.16890   1.00
H2       0.82714    0.11453    -0.15040   1.00
O_3      0.82069    0.24705    0.02000   1.00
C4       0.74958    0.25015    -0.02100   1.00
C3c      0.74749    0.21529    -0.04243   1.00
H1       0.74572    0.18769    -0.02725   1.00
C3d      0.75130    0.28583    -0.04135   1.00
C3       0.74820    0.21534    -0.08354   1.00
O2       0.74126    0.18061    -0.10248   1.00
C3       0.75276    0.28594    -0.08227   1.00
H1       0.75548    0.31392    -0.09657   1.00
C2       0.75111    0.25092    -0.10439   1.00
C5       0.83992    0.28347    0.02121   1.00
H2       0.84682    0.29273    0.05162   1.00
H2       0.82185    0.30674    0.00734   1.00
C5       0.87794    0.27933    -0.00122   1.00
H2       0.87113    0.26902    -0.03129   1.00
H2       0.89590    0.25629    0.01309   1.00
C5       0.90015    0.31816    -0.00254   1.00
H2       0.90681    0.32877    0.02740   1.00
H2       0.88280    0.34083    -0.01803   1.00
H2       0.92825    0.31436    -0.01830   1.00
C5       0.71961    0.33590    -0.01105   1.00
C5       0.77702    0.16174    -0.11070   1.00
H2       0.70397    0.31585    0.00912   1.00
H2       0.70084    0.34120    -0.03712   1.00
H2       0.79270    0.15489    -0.08300   1.00
H2       0.79693    0.18009    -0.12895   1.00
H2       0.79428    0.12583    -0.19055   1.00
H2       0.68370    0.36932    0.05750   1.00
H2       0.66426    0.38924    0.01234   1.00
C2       0.75198    0.25164    0.10395   1.00
C3       0.71592    0.25112    0.08403   1.00
O2       0.68190    0.26079    0.10326   1.00
C3       0.78674    0.24971    0.08174   1.00
H1       0.81477    0.24904    0.09615   1.00
C3a      0.71538    0.24973    0.04287   1.00
H1       0.68762    0.25160    0.02798   1.00
C3b      0.78612    0.24959    0.04078   1.00
C4       0.75028    0.24968    0.02100   1.00
O_3      0.75638    0.32072    -0.02167   1.00
C5       0.66076    0.22678    0.11280   1.00
H2       0.65303    0.20979    0.08609   1.00
C5       0.62335    0.23995    0.13334   1.00
H2       0.67790    0.20762    0.13274   1.00
H2       0.60207    0.24961    0.11077   1.00
H2       0.63068    0.26623    0.15101   1.00
C5       0.60537    0.20790    0.15931   1.00
H2       0.60111    0.18088    0.14189   1.00
H2       0.57661    0.21739    0.17109   1.00
H2       0.62433    0.20141    0.18506   1.00
C5       0.72659    0.37450    0.00980   1.00
H2       0.73596    0.39654    -0.01218   1.00
H2       0.75140    0.37058    0.03045   1.00
C5       0.69011    0.38851    0.03197   1.00
H2       0.69492    0.41850    0.04334   1.00
C5       1.01647    1.12594    1.38227   1.00
H2       0.98860    1.11964    1.39755   1.00
H2       1.00979    1.14946    1.36099   1.00
C5       1.04722    1.14004    1.41219   1.00
H2       1.04318    1.17157    1.41890   1.00
H2       1.07714    1.13547    1.40040   1.00
O_3      1.07069    1.00295    1.23000   1.00
C4       0.99958    0.99985    1.27100   1.00
C3c      0.99749    1.03471    1.29243   1.00
H1       0.99572    1.06231    1.27725   1.00
C3d      1.00130    0.96417    1.29135   1.00
C3       0.99820    1.03466    1.33354   1.00
O2       0.99126    1.06939    1.35248   1.00
C3       1.00276    0.96406    1.33227   1.00
H1       1.00548    0.93608    1.34657   1.00
C2       1.00111    0.99908    1.35439   1.00
C5       1.08992    0.96653    1.22879   1.00
H2       1.09682    0.95727    1.19838   1.00
H2       1.07185    0.94326    1.24266   1.00
C5       1.12794    0.97067    1.25122   1.00
H2       1.12113    0.98098    1.28129   1.00
H2       1.14590    0.99371    1.23691   1.00
C5       1.15015    0.93184    1.25254   1.00
H2       1.15681    0.92123    1.22260   1.00
H2       1.13280    0.90917    1.26803   1.00
H2       1.17825    0.93564    1.26830   1.00
C5       0.96961    0.91410    1.26105   1.00
C5       1.02702    1.08826    1.36070   1.00
H2       0.95397    0.93415    1.24088   1.00
H2       0.95084    0.90880    1.28712   1.00
H2       1.04270    1.09511    1.33300   1.00
H2       1.04693    1.06991    1.37895   1.00
H2       1.04428    1.12417    1.44055   1.00
H2       0.93370    0.88068    1.19250   1.00
H2       0.91426    0.86076    1.23766   1.00
C2       1.00198    0.99836    1.14605   1.00
C3       0.96592    0.99888    1.16597   1.00
O2       0.93190    0.98921    1.14674   1.00
C3       1.03674    1.00029    1.16826   1.00
H1       1.06477    1.00096    1.15385   1.00
C3a      0.96538    1.00027    1.20713   1.00
H1       0.93762    0.99840    1.22202   1.00
C3b      1.03612    1.00041    1.20922   1.00
C4       1.00028    1.00032    1.22900   1.00
O_3      1.00638    0.92928    1.27167   1.00
C5       0.91076    1.02322    1.13720   1.00
H2       0.90303    1.04021    1.16391   1.00
C5       0.87335    1.01005    1.11666   1.00
H2       0.92790    1.04238    1.11726   1.00
H2       0.85207    1.00039    1.13923   1.00
H2       0.88068    0.98377    1.09899   1.00
C5       0.85537    1.04210    1.09069   1.00
H2       0.85111    1.06912    1.10811   1.00
H2       0.82661    1.03261    1.07891   1.00
H2       0.87433    1.04859    1.06494   1.00
C5       0.97659    0.87550    1.24020   1.00
H2       0.98596    0.85346    1.26218   1.00
H2       1.00140    0.87942    1.21955   1.00
C5       0.94011    0.86149    1.21803   1.00
H2       0.94492    0.83150    1.20666   1.00
C5       1.12594    1.38227    1.01647   1.00
H2       1.11964    1.39755    0.98860   1.00
H2       1.14946    1.36099    1.00979   1.00
C5       1.14004    1.41219    1.04722   1.00
H2       1.17157    1.41890    1.04318   1.00
H2       1.13547    1.40040    1.07714   1.00
O_3      1.00295    1.23000    1.07069   1.00
C4       0.99985    1.27100    0.99958   1.00
C3c      1.03471    1.29243    0.99749   1.00
H1       1.06231    1.27725    0.99572   1.00
C3d      0.96417    1.29135    1.00130   1.00
C3       1.03466    1.33354    0.99820   1.00
O2       1.06939    1.35248    0.99126   1.00
C3       0.96406    1.33227    1.00276   1.00
H1       0.93608    1.34657    1.00548   1.00
C2       0.99908    1.35439    1.00111   1.00
C5       0.96653    1.22879    1.08992   1.00
H2       0.95727    1.19838    1.09682   1.00
H2       0.94326    1.24266    1.07185   1.00
C5       0.97067    1.25122    1.12794   1.00
H2       0.98098    1.28129    1.12113   1.00
H2       0.99371    1.23691    1.14590   1.00
C5       0.93184    1.25254    1.15015   1.00
H2       0.92123    1.22260    1.15681   1.00
H2       0.90917    1.26803    1.13280   1.00
H2       0.93564    1.26830    1.17825   1.00
C5       0.91410    1.26105    0.96961   1.00
C5       1.08826    1.36070    1.02702   1.00
H2       0.93415    1.24088    0.95397   1.00
H2       0.90880    1.28712    0.95084   1.00
H2       1.09511    1.33300    1.04270   1.00
H2       1.06991    1.37895    1.04693   1.00
H2       1.12417    1.44055    1.04428   1.00
H2       0.88068    1.19250    0.93370   1.00
H2       0.86076    1.23766    0.91426   1.00
C2       0.99836    1.14605    1.00198   1.00
C3       0.99888    1.16597    0.96592   1.00
O2       0.98921    1.14674    0.93190   1.00
C3       1.00029    1.16826    1.03674   1.00
H1       1.00096    1.15385    1.06477   1.00
C3a      1.00027    1.20713    0.96538   1.00
H1       0.99840    1.22202    0.93762   1.00
C3b      1.00041    1.20922    1.03612   1.00
C4       1.00032    1.22900    1.00028   1.00
O_3      0.92928    1.27167    1.00638   1.00
C5       1.02322    1.13720    0.91076   1.00
H2       1.04021    1.16391    0.90303   1.00
C5       1.01005    1.11666    0.87335   1.00
H2       1.04238    1.11726    0.92790   1.00
H2       1.00039    1.13923    0.85207   1.00
H2       0.98377    1.09899    0.88068   1.00
C5       1.04210    1.09069    0.85537   1.00
H2       1.06912    1.10811    0.85111   1.00
H2       1.03261    1.07891    0.82661   1.00
H2       1.04859    1.06494    0.87433   1.00
C5       0.87550    1.24020    0.97659   1.00
H2       0.85346    1.26218    0.98596   1.00
H2       0.87942    1.21955    1.00140   1.00
C5       0.86149    1.21803    0.94011   1.00
H2       0.83150    1.20666    0.94492   1.00
C5       0.61773    1.01647    0.87406   1.00
H2       0.60245    0.98860    0.88036   1.00
H2       0.63901    1.00979    0.85054   1.00
C5       0.58781    1.04722    0.85996   1.00
H2       0.58110    1.04318    0.82843   1.00
H2       0.59960    1.07714    0.86453   1.00
O_3      0.77000    1.07069    0.99705   1.00
C4       0.72900    0.99958    1.00015   1.00
C3c      0.70757    0.99749    0.96529   1.00
H1       0.72275    0.99572    0.93769   1.00
C3d      0.70865    1.00130    1.03583   1.00
C3       0.66646    0.99820    0.96534   1.00
O2       0.64752    0.99126    0.93061   1.00
C3       0.66773    1.00276    1.03594   1.00
H1       0.65343    1.00548    1.06392   1.00
C2       0.64561    1.00111    1.00092   1.00
C5       0.77121    1.08992    1.03347   1.00
H2       0.80162    1.09682    1.04273   1.00
H2       0.75734    1.07185    1.05674   1.00
C5       0.74878    1.12794    1.02933   1.00
H2       0.71871    1.12113    1.01902   1.00
H2       0.76309    1.14590    1.00629   1.00
C5       0.74746    1.15015    1.06816   1.00
H2       0.77740    1.15681    1.07877   1.00
H2       0.73197    1.13280    1.09083   1.00
H2       0.73170    1.17825    1.06436   1.00
C5       0.73895    0.96961    1.08590   1.00
C5       0.63930    1.02702    0.91174   1.00
H2       0.75912    0.95397    1.06585   1.00
H2       0.71288    0.95084    1.09120   1.00
H2       0.66700    1.04270    0.90489   1.00
H2       0.62105    1.04693    0.93009   1.00
H2       0.55945    1.04428    0.87583   1.00
H2       0.80750    0.93370    1.11932   1.00
H2       0.76234    0.91426    1.13924   1.00
C2       0.85395    1.00198    1.00164   1.00
C3       0.83403    0.96592    1.00112   1.00
O2       0.85326    0.93190    1.01079   1.00
C3       0.83174    1.03674    0.99971   1.00
H1       0.84615    1.06477    0.99904   1.00
C3a      0.79287    0.96538    0.99973   1.00
H1       0.77798    0.93762    1.00160   1.00
C3b      0.79078    1.03612    0.99959   1.00
C4       0.77100    1.00028    0.99968   1.00
O_3      0.72833    1.00638    1.07072   1.00
C5       0.86280    0.91076    0.97678   1.00
H2       0.83609    0.90303    0.95979   1.00
C5       0.88334    0.87335    0.98995   1.00
H2       0.88274    0.92790    0.95762   1.00
H2       0.86077    0.85207    0.99961   1.00
H2       0.90101    0.88068    1.01623   1.00
C5       0.90931    0.85537    0.95790   1.00
H2       0.89189    0.85111    0.93088   1.00
H2       0.92109    0.82661    0.96739   1.00
H2       0.93506    0.87433    0.95141   1.00
C5       0.75980    0.97659    1.12450   1.00
H2       0.73782    0.98596    1.14654   1.00
H2       0.78045    1.00140    1.12058   1.00
C5       0.78197    0.94011    1.13851   1.00
H2       0.79334    0.94492    1.16850   1.00
C5       1.38227    1.01647    1.12594   1.00
H2       1.39755    0.98860    1.11964   1.00
H2       1.36099    1.00979    1.14946   1.00
C5       1.41219    1.04722    1.14004   1.00
H2       1.41890    1.04318    1.17157   1.00
H2       1.40040    1.07714    1.13547   1.00
O_3      1.23000    1.07069    1.00295   1.00
C4       1.27100    0.99958    0.99985   1.00
C3c      1.29243    0.99749    1.03471   1.00
H1       1.27725    0.99572    1.06231   1.00
C3d      1.29135    1.00130    0.96417   1.00
C3       1.33354    0.99820    1.03466   1.00
O2       1.35248    0.99126    1.06939   1.00
C3       1.33227    1.00276    0.96406   1.00
H1       1.34657    1.00548    0.93608   1.00
C2       1.35439    1.00111    0.99908   1.00
C5       1.22879    1.08992    0.96653   1.00
H2       1.19838    1.09682    0.95727   1.00
H2       1.24266    1.07185    0.94326   1.00
C5       1.25122    1.12794    0.97067   1.00
H2       1.28129    1.12113    0.98098   1.00
H2       1.23691    1.14590    0.99371   1.00
C5       1.25254    1.15015    0.93184   1.00
H2       1.22260    1.15681    0.92123   1.00
H2       1.26803    1.13280    0.90917   1.00
H2       1.26830    1.17825    0.93564   1.00
C5       1.26105    0.96961    0.91410   1.00
C5       1.36070    1.02702    1.08826   1.00
H2       1.24088    0.95397    0.93415   1.00
H2       1.28712    0.95084    0.90880   1.00
H2       1.33300    1.04270    1.09511   1.00
H2       1.37895    1.04693    1.06991   1.00
H2       1.44055    1.04428    1.12417   1.00
H2       1.19250    0.93370    0.88068   1.00
H2       1.23766    0.91426    0.86076   1.00
C2       1.14605    1.00198    0.99836   1.00
C3       1.16597    0.96592    0.99888   1.00
O2       1.14674    0.93190    0.98921   1.00
C3       1.16826    1.03674    1.00029   1.00
H1       1.15385    1.06477    1.00096   1.00
C3a      1.20713    0.96538    1.00027   1.00
H1       1.22202    0.93762    0.99840   1.00
C3b      1.20922    1.03612    1.00041   1.00
C4       1.22900    1.00028    1.00032   1.00
O_3      1.27167    1.00638    0.92928   1.00
C5       1.13720    0.91076    1.02322   1.00
H2       1.16391    0.90303    1.04021   1.00
C5       1.11666    0.87335    1.01005   1.00
H2       1.11726    0.92790    1.04238   1.00
H2       1.13923    0.85207    1.00039   1.00
H2       1.09899    0.88068    0.98377   1.00
C5       1.09069    0.85537    1.04210   1.00
H2       1.10811    0.85111    1.06912   1.00
H2       1.07891    0.82661    1.03261   1.00
H2       1.06494    0.87433    1.04859   1.00
C5       1.24020    0.97659    0.87550   1.00
H2       1.26218    0.98596    0.85346   1.00
H2       1.21955    1.00140    0.87942   1.00
C5       1.21803    0.94011    0.86149   1.00
H2       1.20666    0.94492    0.83150   1.00
C5       0.87406    0.61773    1.01647   1.00
H2       0.88036    0.60245    0.98860   1.00
H2       0.85054    0.63901    1.00979   1.00
C5       0.85996    0.58781    1.04722   1.00
H2       0.82843    0.58110    1.04318   1.00
H2       0.86453    0.59960    1.07714   1.00
O_3      0.99705    0.77000    1.07069   1.00
C4       1.00015    0.72900    0.99958   1.00
C3c      0.96529    0.70757    0.99749   1.00
H1       0.93769    0.72275    0.99572   1.00
C3d      1.03583    0.70865    1.00130   1.00
C3       0.96534    0.66646    0.99820   1.00
O2       0.93061    0.64752    0.99126   1.00
C3       1.03594    0.66773    1.00276   1.00
H1       1.06392    0.65343    1.00548   1.00
C2       1.00092    0.64561    1.00111   1.00
C5       1.03347    0.77121    1.08992   1.00
H2       1.04273    0.80162    1.09682   1.00
H2       1.05674    0.75734    1.07185   1.00
C5       1.02933    0.74878    1.12794   1.00
H2       1.01902    0.71871    1.12113   1.00
H2       1.00629    0.76309    1.14590   1.00
C5       1.06816    0.74746    1.15015   1.00
H2       1.07877    0.77740    1.15681   1.00
H2       1.09083    0.73197    1.13280   1.00
H2       1.06436    0.73170    1.17825   1.00
C5       1.08590    0.73895    0.96961   1.00
C5       0.91174    0.63930    1.02702   1.00
H2       1.06585    0.75912    0.95397   1.00
H2       1.09120    0.71288    0.95084   1.00
H2       0.90489    0.66700    1.04270   1.00
H2       0.93009    0.62105    1.04693   1.00
H2       0.87583    0.55945    1.04428   1.00
H2       1.11932    0.80750    0.93370   1.00
H2       1.13924    0.76234    0.91426   1.00
C2       1.00164    0.85395    1.00198   1.00
C3       1.00112    0.83403    0.96592   1.00
O2       1.01079    0.85326    0.93190   1.00
C3       0.99971    0.83174    1.03674   1.00
H1       0.99904    0.84615    1.06477   1.00
C3a      0.99973    0.79287    0.96538   1.00
H1       1.00160    0.77798    0.93762   1.00
C3b      0.99959    0.79078    1.03612   1.00
C4       0.99968    0.77100    1.00028   1.00
O_3      1.07072    0.72833    1.00638   1.00
C5       0.97678    0.86280    0.91076   1.00
H2       0.95979    0.83609    0.90303   1.00
C5       0.98995    0.88334    0.87335   1.00
H2       0.95762    0.88274    0.92790   1.00
H2       0.99961    0.86077    0.85207   1.00
H2       1.01623    0.90101    0.88068   1.00
C5       0.95790    0.90931    0.85537   1.00
H2       0.93088    0.89189    0.85111   1.00
H2       0.96739    0.92109    0.82661   1.00
H2       0.95141    0.93506    0.87433   1.00
C5       1.12450    0.75980    0.97659   1.00
H2       1.14654    0.73782    0.98596   1.00
H2       1.12058    0.78045    1.00140   1.00
C5       1.13851    0.78197    0.94011   1.00
H2       1.16850    0.79334    0.94492   1.00
C5       1.01647    0.87406    0.61773   1.00
H2       0.98860    0.88036    0.60245   1.00
H2       1.00979    0.85054    0.63901   1.00
C5       1.04722    0.85996    0.58781   1.00
H2       1.04318    0.82843    0.58110   1.00
H2       1.07714    0.86453    0.59960   1.00
O_3      1.07069    0.99705    0.77000   1.00
C4       0.99958    1.00015    0.72900   1.00
C3c      0.99749    0.96529    0.70757   1.00
H1       0.99572    0.93769    0.72275   1.00
C3d      1.00130    1.03583    0.70865   1.00
C3       0.99820    0.96534    0.66646   1.00
O2       0.99126    0.93061    0.64752   1.00
C3       1.00276    1.03594    0.66773   1.00
H1       1.00548    1.06392    0.65343   1.00
C2       1.00111    1.00092    0.64561   1.00
C5       1.08992    1.03347    0.77121   1.00
H2       1.09682    1.04273    0.80162   1.00
H2       1.07185    1.05674    0.75734   1.00
C5       1.12794    1.02933    0.74878   1.00
H2       1.12113    1.01902    0.71871   1.00
H2       1.14590    1.00629    0.76309   1.00
C5       1.15015    1.06816    0.74746   1.00
H2       1.15681    1.07877    0.77740   1.00
H2       1.13280    1.09083    0.73197   1.00
H2       1.17825    1.06436    0.73170   1.00
C5       0.96961    1.08590    0.73895   1.00
C5       1.02702    0.91174    0.63930   1.00
H2       0.95397    1.06585    0.75912   1.00
H2       0.95084    1.09120    0.71288   1.00
H2       1.04270    0.90489    0.66700   1.00
H2       1.04693    0.93009    0.62105   1.00
H2       1.04428    0.87583    0.55945   1.00
H2       0.93370    1.11932    0.80750   1.00
H2       0.91426    1.13924    0.76234   1.00
C2       1.00198    1.00164    0.85395   1.00
C3       0.96592    1.00112    0.83403   1.00
O2       0.93190    1.01079    0.85326   1.00
C3       1.03674    0.99971    0.83174   1.00
H1       1.06477    0.99904    0.84615   1.00
C3a      0.96538    0.99973    0.79287   1.00
H1       0.93762    1.00160    0.77798   1.00
C3b      1.03612    0.99959    0.79078   1.00
C4       1.00028    0.99968    0.77100   1.00
O_3      1.00638    1.07072    0.72833   1.00
C5       0.91076    0.97678    0.86280   1.00
H2       0.90303    0.95979    0.83609   1.00
C5       0.87335    0.98995    0.88334   1.00
H2       0.92790    0.95762    0.88274   1.00
H2       0.85207    0.99961    0.86077   1.00
H2       0.88068    1.01623    0.90101   1.00
C5       0.85537    0.95790    0.90931   1.00
H2       0.85111    0.93088    0.89189   1.00
H2       0.82661    0.96739    0.92109   1.00
H2       0.87433    0.95141    0.93506   1.00
C5       0.97659    1.12450    0.75980   1.00
H2       0.98596    1.14654    0.73782   1.00
H2       1.00140    1.12058    0.78045   1.00
C5       0.94011    1.13851    0.78197   1.00
H2       0.94492    1.16850    0.79334   1.00
C5       0.51647    0.62594    1.38227   1.00
H2       0.48860    0.61964    1.39755   1.00
H2       0.50979    0.64946    1.36099   1.00
C5       0.54722    0.64004    1.41219   1.00
H2       0.54318    0.67157    1.41890   1.00
H2       0.57714    0.63547    1.40040   1.00
O_3      0.57069    0.50295    1.23000   1.00
C4       0.49958    0.49985    1.27100   1.00
C3c      0.49749    0.53471    1.29243   1.00
H1       0.49572    0.56231    1.27725   1.00
C3d      0.50130    0.46417    1.29135   1.00
C3       0.49820    0.53466    1.33354   1.00
O2       0.49126    0.56939    1.35248   1.00
C3       0.50276    0.46406    1.33227   1.00
H1       0.50548    0.43608    1.34657   1.00
C2       0.50111    0.49908    1.35439   1.00
C5       0.58992    0.46653    1.22879   1.00
H2       0.59682    0.45727    1.19838   1.00
H2       0.57185    0.44326    1.24266   1.00
C5       0.62794    0.47067    1.25122   1.00
H2       0.62113    0.48098    1.28129   1.00
H2       0.64590    0.49371    1.23691   1.00
C5       0.65015    0.43184    1.25254   1.00
H2       0.65681    0.42123    1.22260   1.00
H2       0.63280    0.40917    1.26803   1.00
H2       0.67825    0.43564    1.26830   1.00
C5       0.46961    0.41410    1.26105   1.00
C5       0.52702    0.58826    1.36070   1.00
H2       0.45397    0.43415    1.24088   1.00
H2       0.45084    0.40880    1.28712   1.00
H2       0.54270    0.59511    1.33300   1.00
H2       0.54693    0.56991    1.37895   1.00
H2       0.54428    0.62417    1.44055   1.00
H2       0.43370    0.38068    1.19250   1.00
H2       0.41426    0.36076    1.23766   1.00
C2       0.50198    0.49836    1.14605   1.00
C3       0.46592    0.49888    1.16597   1.00
O2       0.43190    0.48921    1.14674   1.00
C3       0.53674    0.50029    1.16826   1.00
H1       0.56477    0.50096    1.15385   1.00
C3a      0.46538    0.50027    1.20713   1.00
H1       0.43762    0.49840    1.22202   1.00
C3b      0.53612    0.50041    1.20922   1.00
C4       0.50028    0.50032    1.22900   1.00
O_3      0.50638    0.42928    1.27167   1.00
C5       0.41076    0.52322    1.13720   1.00
H2       0.40303    0.54021    1.16391   1.00
C5       0.37335    0.51005    1.11666   1.00
H2       0.42790    0.54238    1.11726   1.00
H2       0.35207    0.50039    1.13923   1.00
H2       0.38068    0.48377    1.09899   1.00
C5       0.35537    0.54210    1.09069   1.00
H2       0.35111    0.56912    1.10811   1.00
H2       0.32661    0.53261    1.07891   1.00
H2       0.37433    0.54859    1.06494   1.00
C5       0.47659    0.37550    1.24020   1.00
H2       0.48596    0.35346    1.26218   1.00
H2       0.50140    0.37942    1.21955   1.00
C5       0.44011    0.36149    1.21803   1.00
H2       0.44492    0.33150    1.20666   1.00
C5       0.62594    0.88227    1.01647   1.00
H2       0.61964    0.89755    0.98860   1.00
H2       0.64946    0.86099    1.00979   1.00
C5       0.64004    0.91219    1.04722   1.00
H2       0.67157    0.91890    1.04318   1.00
H2       0.63547    0.90040    1.07714   1.00
O_3      0.50295    0.73000    1.07069   1.00
C4       0.49985    0.77100    0.99958   1.00
C3c      0.53471    0.79243    0.99749   1.00
H1       0.56231    0.77725    0.99572   1.00
C3d      0.46417    0.79135    1.00130   1.00
C3       0.53466    0.83354    0.99820   1.00
O2       0.56939    0.85248    0.99126   1.00
C3       0.46406    0.83227    1.00276   1.00
H1       0.43608    0.84657    1.00548   1.00
C2       0.49908    0.85439    1.00111   1.00
C5       0.46653    0.72879    1.08992   1.00
H2       0.45727    0.69838    1.09682   1.00
H2       0.44326    0.74266    1.07185   1.00
C5       0.47067    0.75122    1.12794   1.00
H2       0.48098    0.78129    1.12113   1.00
H2       0.49371    0.73691    1.14590   1.00
C5       0.43184    0.75254    1.15015   1.00
H2       0.42123    0.72260    1.15681   1.00
H2       0.40917    0.76803    1.13280   1.00
H2       0.43564    0.76830    1.17825   1.00
C5       0.41410    0.76105    0.96961   1.00
C5       0.58826    0.86070    1.02702   1.00
H2       0.43415    0.74088    0.95397   1.00
H2       0.40880    0.78712    0.95084   1.00
H2       0.59511    0.83300    1.04270   1.00
H2       0.56991    0.87895    1.04693   1.00
H2       0.62417    0.94055    1.04428   1.00
H2       0.38068    0.69250    0.93370   1.00
H2       0.36076    0.73766    0.91426   1.00
C2       0.49836    0.64605    1.00198   1.00
C3       0.49888    0.66597    0.96592   1.00
O2       0.48921    0.64674    0.93190   1.00
C3       0.50029    0.66826    1.03674   1.00
H1       0.50096    0.65385    1.06477   1.00
C3a      0.50027    0.70713    0.96538   1.00
H1       0.49840    0.72202    0.93762   1.00
C3b      0.50041    0.70922    1.03612   1.00
C4       0.50032    0.72900    1.00028   1.00
O_3      0.42928    0.77167    1.00638   1.00
C5       0.52322    0.63720    0.91076   1.00
H2       0.54021    0.66391    0.90303   1.00
C5       0.51005    0.61666    0.87335   1.00
H2       0.54238    0.61726    0.92790   1.00
H2       0.50039    0.63923    0.85207   1.00
H2       0.48377    0.59899    0.88068   1.00
C5       0.54210    0.59069    0.85537   1.00
H2       0.56912    0.60811    0.85111   1.00
H2       0.53261    0.57891    0.82661   1.00
H2       0.54859    0.56494    0.87433   1.00
C5       0.37550    0.74020    0.97659   1.00
H2       0.35346    0.76218    0.98596   1.00
H2       0.37942    0.71955    1.00140   1.00
C5       0.36149    0.71803    0.94011   1.00
H2       0.33150    0.70666    0.94492   1.00
C5       0.11773    0.51647    0.87406   1.00
H2       0.10245    0.48860    0.88036   1.00
H2       0.13901    0.50979    0.85054   1.00
C5       0.08781    0.54722    0.85996   1.00
H2       0.08110    0.54318    0.82843   1.00
H2       0.09960    0.57714    0.86453   1.00
O_3      0.27000    0.57069    0.99705   1.00
C4       0.22900    0.49958    1.00015   1.00
C3c      0.20757    0.49749    0.96529   1.00
H1       0.22275    0.49572    0.93769   1.00
C3d      0.20865    0.50130    1.03583   1.00
C3       0.16646    0.49820    0.96534   1.00
O2       0.14752    0.49126    0.93061   1.00
C3       0.16773    0.50276    1.03594   1.00
H1       0.15343    0.50548    1.06392   1.00
C2       0.14561    0.50111    1.00092   1.00
C5       0.27121    0.58992    1.03347   1.00
H2       0.30162    0.59682    1.04273   1.00
H2       0.25734    0.57185    1.05674   1.00
C5       0.24878    0.62794    1.02933   1.00
H2       0.21871    0.62113    1.01902   1.00
H2       0.26309    0.64590    1.00629   1.00
C5       0.24746    0.65015    1.06816   1.00
H2       0.27740    0.65681    1.07877   1.00
H2       0.23197    0.63280    1.09083   1.00
H2       0.23170    0.67825    1.06436   1.00
C5       0.23895    0.46961    1.08590   1.00
C5       0.13930    0.52702    0.91174   1.00
H2       0.25912    0.45397    1.06585   1.00
H2       0.21288    0.45084    1.09120   1.00
H2       0.16700    0.54270    0.90489   1.00
H2       0.12105    0.54693    0.93009   1.00
H2       0.05945    0.54428    0.87583   1.00
H2       0.30750    0.43370    1.11932   1.00
H2       0.26234    0.41426    1.13924   1.00
C2       0.35395    0.50198    1.00164   1.00
C3       0.33403    0.46592    1.00112   1.00
O2       0.35326    0.43190    1.01079   1.00
C3       0.33174    0.53674    0.99971   1.00
H1       0.34615    0.56477    0.99904   1.00
C3a      0.29287    0.46538    0.99973   1.00
H1       0.27798    0.43762    1.00160   1.00
C3b      0.29078    0.53612    0.99959   1.00
C4       0.27100    0.50028    0.99968   1.00
O_3      0.22833    0.50638    1.07072   1.00
C5       0.36280    0.41076    0.97678   1.00
H2       0.33609    0.40303    0.95979   1.00
C5       0.38334    0.37335    0.98995   1.00
H2       0.38274    0.42790    0.95762   1.00
H2       0.36077    0.35207    0.99961   1.00
H2       0.40101    0.38068    1.01623   1.00
C5       0.40931    0.35537    0.95790   1.00
H2       0.39189    0.35111    0.93088   1.00
H2       0.42109    0.32661    0.96739   1.00
H2       0.43506    0.37433    0.95141   1.00
C5       0.25980    0.47659    1.12450   1.00
H2       0.23782    0.48596    1.14654   1.00
H2       0.28045    0.50140    1.12058   1.00
C5       0.28197    0.44011    1.13851   1.00
H2       0.29334    0.44492    1.16850   1.00
C5       0.88227    0.51647    1.12594   1.00
H2       0.89755    0.48860    1.11964   1.00
H2       0.86099    0.50979    1.14946   1.00
C5       0.91219    0.54722    1.14004   1.00
H2       0.91890    0.54318    1.17157   1.00
H2       0.90040    0.57714    1.13547   1.00
O_3      0.73000    0.57069    1.00295   1.00
C4       0.77100    0.49958    0.99985   1.00
C3c      0.79243    0.49749    1.03471   1.00
H1       0.77725    0.49572    1.06231   1.00
C3d      0.79135    0.50130    0.96417   1.00
C3       0.83354    0.49820    1.03466   1.00
O2       0.85248    0.49126    1.06939   1.00
C3       0.83227    0.50276    0.96406   1.00
H1       0.84657    0.50548    0.93608   1.00
C2       0.85439    0.50111    0.99908   1.00
C5       0.72879    0.58992    0.96653   1.00
H2       0.69838    0.59682    0.95727   1.00
H2       0.74266    0.57185    0.94326   1.00
C5       0.75122    0.62794    0.97067   1.00
H2       0.78129    0.62113    0.98098   1.00
H2       0.73691    0.64590    0.99371   1.00
C5       0.75254    0.65015    0.93184   1.00
H2       0.72260    0.65681    0.92123   1.00
H2       0.76803    0.63280    0.90917   1.00
H2       0.76830    0.67825    0.93564   1.00
C5       0.76105    0.46961    0.91410   1.00
C5       0.86070    0.52702    1.08826   1.00
H2       0.74088    0.45397    0.93415   1.00
H2       0.78712    0.45084    0.90880   1.00
H2       0.83300    0.54270    1.09511   1.00
H2       0.87895    0.54693    1.06991   1.00
H2       0.94055    0.54428    1.12417   1.00
H2       0.69250    0.43370    0.88068   1.00
H2       0.73766    0.41426    0.86076   1.00
C2       0.64605    0.50198    0.99836   1.00
C3       0.66597    0.46592    0.99888   1.00
O2       0.64674    0.43190    0.98921   1.00
C3       0.66826    0.53674    1.00029   1.00
H1       0.65385    0.56477    1.00096   1.00
C3a      0.70713    0.46538    1.00027   1.00
H1       0.72202    0.43762    0.99840   1.00
C3b      0.70922    0.53612    1.00041   1.00
C4       0.72900    0.50028    1.00032   1.00
O_3      0.77167    0.50638    0.92928   1.00
C5       0.63720    0.41076    1.02322   1.00
H2       0.66391    0.40303    1.04021   1.00
C5       0.61666    0.37335    1.01005   1.00
H2       0.61726    0.42790    1.04238   1.00
H2       0.63923    0.35207    1.00039   1.00
H2       0.59899    0.38068    0.98377   1.00
C5       0.59069    0.35537    1.04210   1.00
H2       0.60811    0.35111    1.06912   1.00
H2       0.57891    0.32661    1.03261   1.00
H2       0.56494    0.37433    1.04859   1.00
C5       0.74020    0.47659    0.87550   1.00
H2       0.76218    0.48596    0.85346   1.00
H2       0.71955    0.50140    0.87942   1.00
C5       0.71803    0.44011    0.86149   1.00
H2       0.70666    0.44492    0.83150   1.00
C5       0.37406    0.11773    1.01647   1.00
H2       0.38036    0.10245    0.98860   1.00
H2       0.35054    0.13901    1.00979   1.00
C5       0.35996    0.08781    1.04722   1.00
H2       0.32843    0.08110    1.04318   1.00
H2       0.36453    0.09960    1.07714   1.00
O_3      0.49705    0.27000    1.07069   1.00
C4       0.50015    0.22900    0.99958   1.00
C3c      0.46529    0.20757    0.99749   1.00
H1       0.43769    0.22275    0.99572   1.00
C3d      0.53583    0.20865    1.00130   1.00
C3       0.46534    0.16646    0.99820   1.00
O2       0.43061    0.14752    0.99126   1.00
C3       0.53594    0.16773    1.00276   1.00
H1       0.56392    0.15343    1.00548   1.00
C2       0.50092    0.14561    1.00111   1.00
C5       0.53347    0.27121    1.08992   1.00
H2       0.54273    0.30162    1.09682   1.00
H2       0.55674    0.25734    1.07185   1.00
C5       0.52933    0.24878    1.12794   1.00
H2       0.51902    0.21871    1.12113   1.00
H2       0.50629    0.26309    1.14590   1.00
C5       0.56816    0.24746    1.15015   1.00
H2       0.57877    0.27740    1.15681   1.00
H2       0.59083    0.23197    1.13280   1.00
H2       0.56436    0.23170    1.17825   1.00
C5       0.58590    0.23895    0.96961   1.00
C5       0.41174    0.13930    1.02702   1.00
H2       0.56585    0.25912    0.95397   1.00
H2       0.59120    0.21288    0.95084   1.00
H2       0.40489    0.16700    1.04270   1.00
H2       0.43009    0.12105    1.04693   1.00
H2       0.37583    0.05945    1.04428   1.00
H2       0.61932    0.30750    0.93370   1.00
H2       0.63924    0.26234    0.91426   1.00
C2       0.50164    0.35395    1.00198   1.00
C3       0.50112    0.33403    0.96592   1.00
O2       0.51079    0.35326    0.93190   1.00
C3       0.49971    0.33174    1.03674   1.00
H1       0.49904    0.34615    1.06477   1.00
C3a      0.49973    0.29287    0.96538   1.00
H1       0.50160    0.27798    0.93762   1.00
C3b      0.49959    0.29078    1.03612   1.00
C4       0.49968    0.27100    1.00028   1.00
O_3      0.57072    0.22833    1.00638   1.00
C5       0.47678    0.36280    0.91076   1.00
H2       0.45979    0.33609    0.90303   1.00
C5       0.48995    0.38334    0.87335   1.00
H2       0.45762    0.38274    0.92790   1.00
H2       0.49961    0.36077    0.85207   1.00
H2       0.51623    0.40101    0.88068   1.00
C5       0.45790    0.40931    0.85537   1.00
H2       0.43088    0.39189    0.85111   1.00
H2       0.46739    0.42109    0.82661   1.00
H2       0.45141    0.43506    0.87433   1.00
C5       0.62450    0.25980    0.97659   1.00
H2       0.64654    0.23782    0.98596   1.00
H2       0.62058    0.28045    1.00140   1.00
C5       0.63851    0.28197    0.94011   1.00
H2       0.66850    0.29334    0.94492   1.00
C5       0.51647    0.37406    0.61773   1.00
H2       0.48860    0.38036    0.60245   1.00
H2       0.50979    0.35054    0.63901   1.00
C5       0.54722    0.35996    0.58781   1.00
H2       0.54318    0.32843    0.58110   1.00
H2       0.57714    0.36453    0.59960   1.00
O_3      0.57069    0.49705    0.77000   1.00
C4       0.49958    0.50015    0.72900   1.00
C3c      0.49749    0.46529    0.70757   1.00
H1       0.49572    0.43769    0.72275   1.00
C3d      0.50130    0.53583    0.70865   1.00
C3       0.49820    0.46534    0.66646   1.00
O2       0.49126    0.43061    0.64752   1.00
C3       0.50276    0.53594    0.66773   1.00
H1       0.50548    0.56392    0.65343   1.00
C2       0.50111    0.50092    0.64561   1.00
C5       0.58992    0.53347    0.77121   1.00
H2       0.59682    0.54273    0.80162   1.00
H2       0.57185    0.55674    0.75734   1.00
C5       0.62794    0.52933    0.74878   1.00
H2       0.62113    0.51902    0.71871   1.00
H2       0.64590    0.50629    0.76309   1.00
C5       0.65015    0.56816    0.74746   1.00
H2       0.65681    0.57877    0.77740   1.00
H2       0.63280    0.59083    0.73197   1.00
H2       0.67825    0.56436    0.73170   1.00
C5       0.46961    0.58590    0.73895   1.00
C5       0.52702    0.41174    0.63930   1.00
H2       0.45397    0.56585    0.75912   1.00
H2       0.45084    0.59120    0.71288   1.00
H2       0.54270    0.40489    0.66700   1.00
H2       0.54693    0.43009    0.62105   1.00
H2       0.54428    0.37583    0.55945   1.00
H2       0.43370    0.61932    0.80750   1.00
H2       0.41426    0.63924    0.76234   1.00
C2       0.50198    0.50164    0.85395   1.00
C3       0.46592    0.50112    0.83403   1.00
O2       0.43190    0.51079    0.85326   1.00
C3       0.53674    0.49971    0.83174   1.00
H1       0.56477    0.49904    0.84615   1.00
C3a      0.46538    0.49973    0.79287   1.00
H1       0.43762    0.50160    0.77798   1.00
C3b      0.53612    0.49959    0.79078   1.00
C4       0.50028    0.49968    0.77100   1.00
O_3      0.50638    0.57072    0.72833   1.00
C5       0.41076    0.47678    0.86280   1.00
H2       0.40303    0.45979    0.83609   1.00
C5       0.37335    0.48995    0.88334   1.00
H2       0.42790    0.45762    0.88274   1.00
H2       0.35207    0.49961    0.86077   1.00
H2       0.38068    0.51623    0.90101   1.00
C5       0.35537    0.45790    0.90931   1.00
H2       0.35111    0.43088    0.89189   1.00
H2       0.32661    0.46739    0.92109   1.00
H2       0.37433    0.45141    0.93506   1.00
C5       0.47659    0.62450    0.75980   1.00
H2       0.48596    0.64654    0.73782   1.00
H2       0.50140    0.62058    0.78045   1.00
C5       0.44011    0.63851    0.78197   1.00
H2       0.44492    0.66850    0.79334   1.00
C5       0.51647    1.12594    0.88227   1.00
H2       0.48860    1.11964    0.89755   1.00
H2       0.50979    1.14946    0.86099   1.00
C5       0.54722    1.14004    0.91219   1.00
H2       0.54318    1.17157    0.91890   1.00
H2       0.57714    1.13547    0.90040   1.00
O_3      0.57069    1.00295    0.73000   1.00
C4       0.49958    0.99985    0.77100   1.00
C3c      0.49749    1.03471    0.79243   1.00
H1       0.49572    1.06231    0.77725   1.00
C3d      0.50130    0.96417    0.79135   1.00
C3       0.49820    1.03466    0.83354   1.00
O2       0.49126    1.06939    0.85248   1.00
C3       0.50276    0.96406    0.83227   1.00
H1       0.50548    0.93608    0.84657   1.00
C2       0.50111    0.99908    0.85439   1.00
C5       0.58992    0.96653    0.72879   1.00
H2       0.59682    0.95727    0.69838   1.00
H2       0.57185    0.94326    0.74266   1.00
C5       0.62794    0.97067    0.75122   1.00
H2       0.62113    0.98098    0.78129   1.00
H2       0.64590    0.99371    0.73691   1.00
C5       0.65015    0.93184    0.75254   1.00
H2       0.65681    0.92123    0.72260   1.00
H2       0.63280    0.90917    0.76803   1.00
H2       0.67825    0.93564    0.76830   1.00
C5       0.46961    0.91410    0.76105   1.00
C5       0.52702    1.08826    0.86070   1.00
H2       0.45397    0.93415    0.74088   1.00
H2       0.45084    0.90880    0.78712   1.00
H2       0.54270    1.09511    0.83300   1.00
H2       0.54693    1.06991    0.87895   1.00
H2       0.54428    1.12417    0.94055   1.00
H2       0.43370    0.88068    0.69250   1.00
H2       0.41426    0.86076    0.73766   1.00
C2       0.50198    0.99836    0.64605   1.00
C3       0.46592    0.99888    0.66597   1.00
O2       0.43190    0.98921    0.64674   1.00
C3       0.53674    1.00029    0.66826   1.00
H1       0.56477    1.00096    0.65385   1.00
C3a      0.46538    1.00027    0.70713   1.00
H1       0.43762    0.99840    0.72202   1.00
C3b      0.53612    1.00041    0.70922   1.00
C4       0.50028    1.00032    0.72900   1.00
O_3      0.50638    0.92928    0.77167   1.00
C5       0.41076    1.02322    0.63720   1.00
H2       0.40303    1.04021    0.66391   1.00
C5       0.37335    1.01005    0.61666   1.00
H2       0.42790    1.04238    0.61726   1.00
H2       0.35207    1.00039    0.63923   1.00
H2       0.38068    0.98377    0.59899   1.00
C5       0.35537    1.04210    0.59069   1.00
H2       0.35111    1.06912    0.60811   1.00
H2       0.32661    1.03261    0.57891   1.00
H2       0.37433    1.04859    0.56494   1.00
C5       0.47659    0.87550    0.74020   1.00
H2       0.48596    0.85346    0.76218   1.00
H2       0.50140    0.87942    0.71955   1.00
C5       0.44011    0.86149    0.71803   1.00
H2       0.44492    0.83150    0.70666   1.00
C5       0.62594    1.38227    0.51647   1.00
H2       0.61964    1.39755    0.48860   1.00
H2       0.64946    1.36099    0.50979   1.00
C5       0.64004    1.41219    0.54722   1.00
H2       0.67157    1.41890    0.54318   1.00
H2       0.63547    1.40040    0.57714   1.00
O_3      0.50295    1.23000    0.57069   1.00
C4       0.49985    1.27100    0.49958   1.00
C3c      0.53471    1.29243    0.49749   1.00
H1       0.56231    1.27725    0.49572   1.00
C3d      0.46417    1.29135    0.50130   1.00
C3       0.53466    1.33354    0.49820   1.00
O2       0.56939    1.35248    0.49126   1.00
C3       0.46406    1.33227    0.50276   1.00
H1       0.43608    1.34657    0.50548   1.00
C2       0.49908    1.35439    0.50111   1.00
C5       0.46653    1.22879    0.58992   1.00
H2       0.45727    1.19838    0.59682   1.00
H2       0.44326    1.24266    0.57185   1.00
C5       0.47067    1.25122    0.62794   1.00
H2       0.48098    1.28129    0.62113   1.00
H2       0.49371    1.23691    0.64590   1.00
C5       0.43184    1.25254    0.65015   1.00
H2       0.42123    1.22260    0.65681   1.00
H2       0.40917    1.26803    0.63280   1.00
H2       0.43564    1.26830    0.67825   1.00
C5       0.41410    1.26105    0.46961   1.00
C5       0.58826    1.36070    0.52702   1.00
H2       0.43415    1.24088    0.45397   1.00
H2       0.40880    1.28712    0.45084   1.00
H2       0.59511    1.33300    0.54270   1.00
H2       0.56991    1.37895    0.54693   1.00
H2       0.62417    1.44055    0.54428   1.00
H2       0.38068    1.19250    0.43370   1.00
H2       0.36076    1.23766    0.41426   1.00
C2       0.49836    1.14605    0.50198   1.00
C3       0.49888    1.16597    0.46592   1.00
O2       0.48921    1.14674    0.43190   1.00
C3       0.50029    1.16826    0.53674   1.00
H1       0.50096    1.15385    0.56477   1.00
C3a      0.50027    1.20713    0.46538   1.00
H1       0.49840    1.22202    0.43762   1.00
C3b      0.50041    1.20922    0.53612   1.00
C4       0.50032    1.22900    0.50028   1.00
O_3      0.42928    1.27167    0.50638   1.00
C5       0.52322    1.13720    0.41076   1.00
H2       0.54021    1.16391    0.40303   1.00
C5       0.51005    1.11666    0.37335   1.00
H2       0.54238    1.11726    0.42790   1.00
H2       0.50039    1.13923    0.35207   1.00
H2       0.48377    1.09899    0.38068   1.00
C5       0.54210    1.09069    0.35537   1.00
H2       0.56912    1.10811    0.35111   1.00
H2       0.53261    1.07891    0.32661   1.00
H2       0.54859    1.06494    0.37433   1.00
C5       0.37550    1.24020    0.47659   1.00
H2       0.35346    1.26218    0.48596   1.00
H2       0.37942    1.21955    0.50140   1.00
C5       0.36149    1.21803    0.44011   1.00
H2       0.33150    1.20666    0.44492   1.00
C5       0.11773    1.01647    0.37406   1.00
H2       0.10245    0.98860    0.38036   1.00
H2       0.13901    1.00979    0.35054   1.00
C5       0.08781    1.04722    0.35996   1.00
H2       0.08110    1.04318    0.32843   1.00
H2       0.09960    1.07714    0.36453   1.00
O_3      0.27000    1.07069    0.49705   1.00
C4       0.22900    0.99958    0.50015   1.00
C3c      0.20757    0.99749    0.46529   1.00
H1       0.22275    0.99572    0.43769   1.00
C3d      0.20865    1.00130    0.53583   1.00
C3       0.16646    0.99820    0.46534   1.00
O2       0.14752    0.99126    0.43061   1.00
C3       0.16773    1.00276    0.53594   1.00
H1       0.15343    1.00548    0.56392   1.00
C2       0.14561    1.00111    0.50092   1.00
C5       0.27121    1.08992    0.53347   1.00
H2       0.30162    1.09682    0.54273   1.00
H2       0.25734    1.07185    0.55674   1.00
C5       0.24878    1.12794    0.52933   1.00
H2       0.21871    1.12113    0.51902   1.00
H2       0.26309    1.14590    0.50629   1.00
C5       0.24746    1.15015    0.56816   1.00
H2       0.27740    1.15681    0.57877   1.00
H2       0.23197    1.13280    0.59083   1.00
H2       0.23170    1.17825    0.56436   1.00
C5       0.23895    0.96961    0.58590   1.00
C5       0.13930    1.02702    0.41174   1.00
H2       0.25912    0.95397    0.56585   1.00
H2       0.21288    0.95084    0.59120   1.00
H2       0.16700    1.04270    0.40489   1.00
H2       0.12105    1.04693    0.43009   1.00
H2       0.05945    1.04428    0.37583   1.00
H2       0.30750    0.93370    0.61932   1.00
H2       0.26234    0.91426    0.63924   1.00
C2       0.35395    1.00198    0.50164   1.00
C3       0.33403    0.96592    0.50112   1.00
O2       0.35326    0.93190    0.51079   1.00
C3       0.33174    1.03674    0.49971   1.00
H1       0.34615    1.06477    0.49904   1.00
C3a      0.29287    0.96538    0.49973   1.00
H1       0.27798    0.93762    0.50160   1.00
C3b      0.29078    1.03612    0.49959   1.00
C4       0.27100    1.00028    0.49968   1.00
O_3      0.22833    1.00638    0.57072   1.00
C5       0.36280    0.91076    0.47678   1.00
H2       0.33609    0.90303    0.45979   1.00
C5       0.38334    0.87335    0.48995   1.00
H2       0.38274    0.92790    0.45762   1.00
H2       0.36077    0.85207    0.49961   1.00
H2       0.40101    0.88068    0.51623   1.00
C5       0.40931    0.85537    0.45790   1.00
H2       0.39189    0.85111    0.43088   1.00
H2       0.42109    0.82661    0.46739   1.00
H2       0.43506    0.87433    0.45141   1.00
C5       0.25980    0.97659    0.62450   1.00
H2       0.23782    0.98596    0.64654   1.00
H2       0.28045    1.00140    0.62058   1.00
C5       0.28197    0.94011    0.63851   1.00
H2       0.29334    0.94492    0.66850   1.00
C5       0.88227    1.01647    0.62594   1.00
H2       0.89755    0.98860    0.61964   1.00
H2       0.86099    1.00979    0.64946   1.00
C5       0.91219    1.04722    0.64004   1.00
H2       0.91890    1.04318    0.67157   1.00
H2       0.90040    1.07714    0.63547   1.00
O_3      0.73000    1.07069    0.50295   1.00
C4       0.77100    0.99958    0.49985   1.00
C3c      0.79243    0.99749    0.53471   1.00
H1       0.77725    0.99572    0.56231   1.00
C3d      0.79135    1.00130    0.46417   1.00
C3       0.83354    0.99820    0.53466   1.00
O2       0.85248    0.99126    0.56939   1.00
C3       0.83227    1.00276    0.46406   1.00
H1       0.84657    1.00548    0.43608   1.00
C2       0.85439    1.00111    0.49908   1.00
C5       0.72879    1.08992    0.46653   1.00
H2       0.69838    1.09682    0.45727   1.00
H2       0.74266    1.07185    0.44326   1.00
C5       0.75122    1.12794    0.47067   1.00
H2       0.78129    1.12113    0.48098   1.00
H2       0.73691    1.14590    0.49371   1.00
C5       0.75254    1.15015    0.43184   1.00
H2       0.72260    1.15681    0.42123   1.00
H2       0.76803    1.13280    0.40917   1.00
H2       0.76830    1.17825    0.43564   1.00
C5       0.76105    0.96961    0.41410   1.00
C5       0.86070    1.02702    0.58826   1.00
H2       0.74088    0.95397    0.43415   1.00
H2       0.78712    0.95084    0.40880   1.00
H2       0.83300    1.04270    0.59511   1.00
H2       0.87895    1.04693    0.56991   1.00
H2       0.94055    1.04428    0.62417   1.00
H2       0.69250    0.93370    0.38068   1.00
H2       0.73766    0.91426    0.36076   1.00
C2       0.64605    1.00198    0.49836   1.00
C3       0.66597    0.96592    0.49888   1.00
O2       0.64674    0.93190    0.48921   1.00
C3       0.66826    1.03674    0.50029   1.00
H1       0.65385    1.06477    0.50096   1.00
C3a      0.70713    0.96538    0.50027   1.00
H1       0.72202    0.93762    0.49840   1.00
C3b      0.70922    1.03612    0.50041   1.00
C4       0.72900    1.00028    0.50032   1.00
O_3      0.77167    1.00638    0.42928   1.00
C5       0.63720    0.91076    0.52322   1.00
H2       0.66391    0.90303    0.54021   1.00
C5       0.61666    0.87335    0.51005   1.00
H2       0.61726    0.92790    0.54238   1.00
H2       0.63923    0.85207    0.50039   1.00
H2       0.59899    0.88068    0.48377   1.00
C5       0.59069    0.85537    0.54210   1.00
H2       0.60811    0.85111    0.56912   1.00
H2       0.57891    0.82661    0.53261   1.00
H2       0.56494    0.87433    0.54859   1.00
C5       0.74020    0.97659    0.37550   1.00
H2       0.76218    0.98596    0.35346   1.00
H2       0.71955    1.00140    0.37942   1.00
C5       0.71803    0.94011    0.36149   1.00
H2       0.70666    0.94492    0.33150   1.00
C5       0.37406    0.61773    0.51647   1.00
H2       0.38036    0.60245    0.48860   1.00
H2       0.35054    0.63901    0.50979   1.00
C5       0.35996    0.58781    0.54722   1.00
H2       0.32843    0.58110    0.54318   1.00
H2       0.36453    0.59960    0.57714   1.00
O_3      0.49705    0.77000    0.57069   1.00
C4       0.50015    0.72900    0.49958   1.00
C3c      0.46529    0.70757    0.49749   1.00
H1       0.43769    0.72275    0.49572   1.00
C3d      0.53583    0.70865    0.50130   1.00
C3       0.46534    0.66646    0.49820   1.00
O2       0.43061    0.64752    0.49126   1.00
C3       0.53594    0.66773    0.50276   1.00
H1       0.56392    0.65343    0.50548   1.00
C2       0.50092    0.64561    0.50111   1.00
C5       0.53347    0.77121    0.58992   1.00
H2       0.54273    0.80162    0.59682   1.00
H2       0.55674    0.75734    0.57185   1.00
C5       0.52933    0.74878    0.62794   1.00
H2       0.51902    0.71871    0.62113   1.00
H2       0.50629    0.76309    0.64590   1.00
C5       0.56816    0.74746    0.65015   1.00
H2       0.57877    0.77740    0.65681   1.00
H2       0.59083    0.73197    0.63280   1.00
H2       0.56436    0.73170    0.67825   1.00
C5       0.58590    0.73895    0.46961   1.00
C5       0.41174    0.63930    0.52702   1.00
H2       0.56585    0.75912    0.45397   1.00
H2       0.59120    0.71288    0.45084   1.00
H2       0.40489    0.66700    0.54270   1.00
H2       0.43009    0.62105    0.54693   1.00
H2       0.37583    0.55945    0.54428   1.00
H2       0.61932    0.80750    0.43370   1.00
H2       0.63924    0.76234    0.41426   1.00
C2       0.50164    0.85395    0.50198   1.00
C3       0.50112    0.83403    0.46592   1.00
O2       0.51079    0.85326    0.43190   1.00
C3       0.49971    0.83174    0.53674   1.00
H1       0.49904    0.84615    0.56477   1.00
C3a      0.49973    0.79287    0.46538   1.00
H1       0.50160    0.77798    0.43762   1.00
C3b      0.49959    0.79078    0.53612   1.00
C4       0.49968    0.77100    0.50028   1.00
O_3      0.57072    0.72833    0.50638   1.00
C5       0.47678    0.86280    0.41076   1.00
H2       0.45979    0.83609    0.40303   1.00
C5       0.48995    0.88334    0.37335   1.00
H2       0.45762    0.88274    0.42790   1.00
H2       0.49961    0.86077    0.35207   1.00
H2       0.51623    0.90101    0.38068   1.00
C5       0.45790    0.90931    0.35537   1.00
H2       0.43088    0.89189    0.35111   1.00
H2       0.46739    0.92109    0.32661   1.00
H2       0.45141    0.93506    0.37433   1.00
C5       0.62450    0.75980    0.47659   1.00
H2       0.64654    0.73782    0.48596   1.00
H2       0.62058    0.78045    0.50140   1.00
C5       0.63851    0.78197    0.44011   1.00
H2       0.66850    0.79334    0.44492   1.00
C5       0.51647    0.87406    0.11773   1.00
H2       0.48860    0.88036    0.10245   1.00
H2       0.50979    0.85054    0.13901   1.00
C5       0.54722    0.85996    0.08781   1.00
H2       0.54318    0.82843    0.08110   1.00
H2       0.57714    0.86453    0.09960   1.00
O_3      0.57069    0.99705    0.27000   1.00
C4       0.49958    1.00015    0.22900   1.00
C3c      0.49749    0.96529    0.20757   1.00
H1       0.49572    0.93769    0.22275   1.00
C3d      0.50130    1.03583    0.20865   1.00
C3       0.49820    0.96534    0.16646   1.00
O2       0.49126    0.93061    0.14752   1.00
C3       0.50276    1.03594    0.16773   1.00
H1       0.50548    1.06392    0.15343   1.00
C2       0.50111    1.00092    0.14561   1.00
C5       0.58992    1.03347    0.27121   1.00
H2       0.59682    1.04273    0.30162   1.00
H2       0.57185    1.05674    0.25734   1.00
C5       0.62794    1.02933    0.24878   1.00
H2       0.62113    1.01902    0.21871   1.00
H2       0.64590    1.00629    0.26309   1.00
C5       0.65015    1.06816    0.24746   1.00
H2       0.65681    1.07877    0.27740   1.00
H2       0.63280    1.09083    0.23197   1.00
H2       0.67825    1.06436    0.23170   1.00
C5       0.46961    1.08590    0.23895   1.00
C5       0.52702    0.91174    0.13930   1.00
H2       0.45397    1.06585    0.25912   1.00
H2       0.45084    1.09120    0.21288   1.00
H2       0.54270    0.90489    0.16700   1.00
H2       0.54693    0.93009    0.12105   1.00
H2       0.54428    0.87583    0.05945   1.00
H2       0.43370    1.11932    0.30750   1.00
H2       0.41426    1.13924    0.26234   1.00
C2       0.50198    1.00164    0.35395   1.00
C3       0.46592    1.00112    0.33403   1.00
O2       0.43190    1.01079    0.35326   1.00
C3       0.53674    0.99971    0.33174   1.00
H1       0.56477    0.99904    0.34615   1.00
C3a      0.46538    0.99973    0.29287   1.00
H1       0.43762    1.00160    0.27798   1.00
C3b      0.53612    0.99959    0.29078   1.00
C4       0.50028    0.99968    0.27100   1.00
O_3      0.50638    1.07072    0.22833   1.00
C5       0.41076    0.97678    0.36280   1.00
H2       0.40303    0.95979    0.33609   1.00
C5       0.37335    0.98995    0.38334   1.00
H2       0.42790    0.95762    0.38274   1.00
H2       0.35207    0.99961    0.36077   1.00
H2       0.38068    1.01623    0.40101   1.00
C5       0.35537    0.95790    0.40931   1.00
H2       0.35111    0.93088    0.39189   1.00
H2       0.32661    0.96739    0.42109   1.00
H2       0.37433    0.95141    0.43506   1.00
C5       0.47659    1.12450    0.25980   1.00
H2       0.48596    1.14654    0.23782   1.00
H2       0.50140    1.12058    0.28045   1.00
C5       0.44011    1.13851    0.28197   1.00
H2       0.44492    1.16850    0.29334   1.00
C5       1.01647    0.62594    0.88227   1.00
H2       0.98860    0.61964    0.89755   1.00
H2       1.00979    0.64946    0.86099   1.00
C5       1.04722    0.64004    0.91219   1.00
H2       1.04318    0.67157    0.91890   1.00
H2       1.07714    0.63547    0.90040   1.00
O_3      1.07069    0.50295    0.73000   1.00
C4       0.99958    0.49985    0.77100   1.00
C3c      0.99749    0.53471    0.79243   1.00
H1       0.99572    0.56231    0.77725   1.00
C3d      1.00130    0.46417    0.79135   1.00
C3       0.99820    0.53466    0.83354   1.00
O2       0.99126    0.56939    0.85248   1.00
C3       1.00276    0.46406    0.83227   1.00
H1       1.00548    0.43608    0.84657   1.00
C2       1.00111    0.49908    0.85439   1.00
C5       1.08992    0.46653    0.72879   1.00
H2       1.09682    0.45727    0.69838   1.00
H2       1.07185    0.44326    0.74266   1.00
C5       1.12794    0.47067    0.75122   1.00
H2       1.12113    0.48098    0.78129   1.00
H2       1.14590    0.49371    0.73691   1.00
C5       1.15015    0.43184    0.75254   1.00
H2       1.15681    0.42123    0.72260   1.00
H2       1.13280    0.40917    0.76803   1.00
H2       1.17825    0.43564    0.76830   1.00
C5       0.96961    0.41410    0.76105   1.00
C5       1.02702    0.58826    0.86070   1.00
H2       0.95397    0.43415    0.74088   1.00
H2       0.95084    0.40880    0.78712   1.00
H2       1.04270    0.59511    0.83300   1.00
H2       1.04693    0.56991    0.87895   1.00
H2       1.04428    0.62417    0.94055   1.00
H2       0.93370    0.38068    0.69250   1.00
H2       0.91426    0.36076    0.73766   1.00
C2       1.00198    0.49836    0.64605   1.00
C3       0.96592    0.49888    0.66597   1.00
O2       0.93190    0.48921    0.64674   1.00
C3       1.03674    0.50029    0.66826   1.00
H1       1.06477    0.50096    0.65385   1.00
C3a      0.96538    0.50027    0.70713   1.00
H1       0.93762    0.49840    0.72202   1.00
C3b      1.03612    0.50041    0.70922   1.00
C4       1.00028    0.50032    0.72900   1.00
O_3      1.00638    0.42928    0.77167   1.00
C5       0.91076    0.52322    0.63720   1.00
H2       0.90303    0.54021    0.66391   1.00
C5       0.87335    0.51005    0.61666   1.00
H2       0.92790    0.54238    0.61726   1.00
H2       0.85207    0.50039    0.63923   1.00
H2       0.88068    0.48377    0.59899   1.00
C5       0.85537    0.54210    0.59069   1.00
H2       0.85111    0.56912    0.60811   1.00
H2       0.82661    0.53261    0.57891   1.00
H2       0.87433    0.54859    0.56494   1.00
C5       0.97659    0.37550    0.74020   1.00
H2       0.98596    0.35346    0.76218   1.00
H2       1.00140    0.37942    0.71955   1.00
C5       0.94011    0.36149    0.71803   1.00
H2       0.94492    0.33150    0.70666   1.00
C5       1.12594    0.88227    0.51647   1.00
H2       1.11964    0.89755    0.48860   1.00
H2       1.14946    0.86099    0.50979   1.00
C5       1.14004    0.91219    0.54722   1.00
H2       1.17157    0.91890    0.54318   1.00
H2       1.13547    0.90040    0.57714   1.00
O_3      1.00295    0.73000    0.57069   1.00
C4       0.99985    0.77100    0.49958   1.00
C3c      1.03471    0.79243    0.49749   1.00
H1       1.06231    0.77725    0.49572   1.00
C3d      0.96417    0.79135    0.50130   1.00
C3       1.03466    0.83354    0.49820   1.00
O2       1.06939    0.85248    0.49126   1.00
C3       0.96406    0.83227    0.50276   1.00
H1       0.93608    0.84657    0.50548   1.00
C2       0.99908    0.85439    0.50111   1.00
C5       0.96653    0.72879    0.58992   1.00
H2       0.95727    0.69838    0.59682   1.00
H2       0.94326    0.74266    0.57185   1.00
C5       0.97067    0.75122    0.62794   1.00
H2       0.98098    0.78129    0.62113   1.00
H2       0.99371    0.73691    0.64590   1.00
C5       0.93184    0.75254    0.65015   1.00
H2       0.92123    0.72260    0.65681   1.00
H2       0.90917    0.76803    0.63280   1.00
H2       0.93564    0.76830    0.67825   1.00
C5       0.91410    0.76105    0.46961   1.00
C5       1.08826    0.86070    0.52702   1.00
H2       0.93415    0.74088    0.45397   1.00
H2       0.90880    0.78712    0.45084   1.00
H2       1.09511    0.83300    0.54270   1.00
H2       1.06991    0.87895    0.54693   1.00
H2       1.12417    0.94055    0.54428   1.00
H2       0.88068    0.69250    0.43370   1.00
H2       0.86076    0.73766    0.41426   1.00
C2       0.99836    0.64605    0.50198   1.00
C3       0.99888    0.66597    0.46592   1.00
O2       0.98921    0.64674    0.43190   1.00
C3       1.00029    0.66826    0.53674   1.00
H1       1.00096    0.65385    0.56477   1.00
C3a      1.00027    0.70713    0.46538   1.00
H1       0.99840    0.72202    0.43762   1.00
C3b      1.00041    0.70922    0.53612   1.00
C4       1.00032    0.72900    0.50028   1.00
O_3      0.92928    0.77167    0.50638   1.00
C5       1.02322    0.63720    0.41076   1.00
H2       1.04021    0.66391    0.40303   1.00
C5       1.01005    0.61666    0.37335   1.00
H2       1.04238    0.61726    0.42790   1.00
H2       1.00039    0.63923    0.35207   1.00
H2       0.98377    0.59899    0.38068   1.00
C5       1.04210    0.59069    0.35537   1.00
H2       1.06912    0.60811    0.35111   1.00
H2       1.03261    0.57891    0.32661   1.00
H2       1.04859    0.56494    0.37433   1.00
C5       0.87550    0.74020    0.47659   1.00
H2       0.85346    0.76218    0.48596   1.00
H2       0.87942    0.71955    0.50140   1.00
C5       0.86149    0.71803    0.44011   1.00
H2       0.83150    0.70666    0.44492   1.00
C5       0.61773    0.51647    0.37406   1.00
H2       0.60245    0.48860    0.38036   1.00
H2       0.63901    0.50979    0.35054   1.00
C5       0.58781    0.54722    0.35996   1.00
H2       0.58110    0.54318    0.32843   1.00
H2       0.59960    0.57714    0.36453   1.00
O_3      0.77000    0.57069    0.49705   1.00
C4       0.72900    0.49958    0.50015   1.00
C3c      0.70757    0.49749    0.46529   1.00
H1       0.72275    0.49572    0.43769   1.00
C3d      0.70865    0.50130    0.53583   1.00
C3       0.66646    0.49820    0.46534   1.00
O2       0.64752    0.49126    0.43061   1.00
C3       0.66773    0.50276    0.53594   1.00
H1       0.65343    0.50548    0.56392   1.00
C2       0.64561    0.50111    0.50092   1.00
C5       0.77121    0.58992    0.53347   1.00
H2       0.80162    0.59682    0.54273   1.00
H2       0.75734    0.57185    0.55674   1.00
C5       0.74878    0.62794    0.52933   1.00
H2       0.71871    0.62113    0.51902   1.00
H2       0.76309    0.64590    0.50629   1.00
C5       0.74746    0.65015    0.56816   1.00
H2       0.77740    0.65681    0.57877   1.00
H2       0.73197    0.63280    0.59083   1.00
H2       0.73170    0.67825    0.56436   1.00
C5       0.73895    0.46961    0.58590   1.00
C5       0.63930    0.52702    0.41174   1.00
H2       0.75912    0.45397    0.56585   1.00
H2       0.71288    0.45084    0.59120   1.00
H2       0.66700    0.54270    0.40489   1.00
H2       0.62105    0.54693    0.43009   1.00
H2       0.55945    0.54428    0.37583   1.00
H2       0.80750    0.43370    0.61932   1.00
H2       0.76234    0.41426    0.63924   1.00
C2       0.85395    0.50198    0.50164   1.00
C3       0.83403    0.46592    0.50112   1.00
O2       0.85326    0.43190    0.51079   1.00
C3       0.83174    0.53674    0.49971   1.00
H1       0.84615    0.56477    0.49904   1.00
C3a      0.79287    0.46538    0.49973   1.00
H1       0.77798    0.43762    0.50160   1.00
C3b      0.79078    0.53612    0.49959   1.00
C4       0.77100    0.50028    0.49968   1.00
O_3      0.72833    0.50638    0.57072   1.00
C5       0.86280    0.41076    0.47678   1.00
H2       0.83609    0.40303    0.45979   1.00
C5       0.88334    0.37335    0.48995   1.00
H2       0.88274    0.42790    0.45762   1.00
H2       0.86077    0.35207    0.49961   1.00
H2       0.90101    0.38068    0.51623   1.00
C5       0.90931    0.35537    0.45790   1.00
H2       0.89189    0.35111    0.43088   1.00
H2       0.92109    0.32661    0.46739   1.00
H2       0.93506    0.37433    0.45141   1.00
C5       0.75980    0.47659    0.62450   1.00
H2       0.73782    0.48596    0.64654   1.00
H2       0.78045    0.50140    0.62058   1.00
C5       0.78197    0.44011    0.63851   1.00
H2       0.79334    0.44492    0.66850   1.00
C5       1.38227    0.51647    0.62594   1.00
H2       1.39755    0.48860    0.61964   1.00
H2       1.36099    0.50979    0.64946   1.00
C5       1.41219    0.54722    0.64004   1.00
H2       1.41890    0.54318    0.67157   1.00
H2       1.40040    0.57714    0.63547   1.00
O_3      1.23000    0.57069    0.50295   1.00
C4       1.27100    0.49958    0.49985   1.00
C3c      1.29243    0.49749    0.53471   1.00
H1       1.27725    0.49572    0.56231   1.00
C3d      1.29135    0.50130    0.46417   1.00
C3       1.33354    0.49820    0.53466   1.00
O2       1.35248    0.49126    0.56939   1.00
C3       1.33227    0.50276    0.46406   1.00
H1       1.34657    0.50548    0.43608   1.00
C2       1.35439    0.50111    0.49908   1.00
C5       1.22879    0.58992    0.46653   1.00
H2       1.19838    0.59682    0.45727   1.00
H2       1.24266    0.57185    0.44326   1.00
C5       1.25122    0.62794    0.47067   1.00
H2       1.28129    0.62113    0.48098   1.00
H2       1.23691    0.64590    0.49371   1.00
C5       1.25254    0.65015    0.43184   1.00
H2       1.22260    0.65681    0.42123   1.00
H2       1.26803    0.63280    0.40917   1.00
H2       1.26830    0.67825    0.43564   1.00
C5       1.26105    0.46961    0.41410   1.00
C5       1.36070    0.52702    0.58826   1.00
H2       1.24088    0.45397    0.43415   1.00
H2       1.28712    0.45084    0.40880   1.00
H2       1.33300    0.54270    0.59511   1.00
H2       1.37895    0.54693    0.56991   1.00
H2       1.44055    0.54428    0.62417   1.00
H2       1.19250    0.43370    0.38068   1.00
H2       1.23766    0.41426    0.36076   1.00
C2       1.14605    0.50198    0.49836   1.00
C3       1.16597    0.46592    0.49888   1.00
O2       1.14674    0.43190    0.48921   1.00
C3       1.16826    0.53674    0.50029   1.00
H1       1.15385    0.56477    0.50096   1.00
C3a      1.20713    0.46538    0.50027   1.00
H1       1.22202    0.43762    0.49840   1.00
C3b      1.20922    0.53612    0.50041   1.00
C4       1.22900    0.50028    0.50032   1.00
O_3      1.27167    0.50638    0.42928   1.00
C5       1.13720    0.41076    0.52322   1.00
H2       1.16391    0.40303    0.54021   1.00
C5       1.11666    0.37335    0.51005   1.00
H2       1.11726    0.42790    0.54238   1.00
H2       1.13923    0.35207    0.50039   1.00
H2       1.09899    0.38068    0.48377   1.00
C5       1.09069    0.35537    0.54210   1.00
H2       1.10811    0.35111    0.56912   1.00
H2       1.07891    0.32661    0.53261   1.00
H2       1.06494    0.37433    0.54859   1.00
C5       1.24020    0.47659    0.37550   1.00
H2       1.26218    0.48596    0.35346   1.00
H2       1.21955    0.50140    0.37942   1.00
C5       1.21803    0.44011    0.36149   1.00
H2       1.20666    0.44492    0.33150   1.00
C5       0.87406    0.11773    0.51647   1.00
H2       0.88036    0.10245    0.48860   1.00
H2       0.85054    0.13901    0.50979   1.00
C5       0.85996    0.08781    0.54722   1.00
H2       0.82843    0.08110    0.54318   1.00
H2       0.86453    0.09960    0.57714   1.00
O_3      0.99705    0.27000    0.57069   1.00
C4       1.00015    0.22900    0.49958   1.00
C3c      0.96529    0.20757    0.49749   1.00
H1       0.93769    0.22275    0.49572   1.00
C3d      1.03583    0.20865    0.50130   1.00
C3       0.96534    0.16646    0.49820   1.00
O2       0.93061    0.14752    0.49126   1.00
C3       1.03594    0.16773    0.50276   1.00
H1       1.06392    0.15343    0.50548   1.00
C2       1.00092    0.14561    0.50111   1.00
C5       1.03347    0.27121    0.58992   1.00
H2       1.04273    0.30162    0.59682   1.00
H2       1.05674    0.25734    0.57185   1.00
C5       1.02933    0.24878    0.62794   1.00
H2       1.01902    0.21871    0.62113   1.00
H2       1.00629    0.26309    0.64590   1.00
C5       1.06816    0.24746    0.65015   1.00
H2       1.07877    0.27740    0.65681   1.00
H2       1.09083    0.23197    0.63280   1.00
H2       1.06436    0.23170    0.67825   1.00
C5       1.08590    0.23895    0.46961   1.00
C5       0.91174    0.13930    0.52702   1.00
H2       1.06585    0.25912    0.45397   1.00
H2       1.09120    0.21288    0.45084   1.00
H2       0.90489    0.16700    0.54270   1.00
H2       0.93009    0.12105    0.54693   1.00
H2       0.87583    0.05945    0.54428   1.00
H2       1.11932    0.30750    0.43370   1.00
H2       1.13924    0.26234    0.41426   1.00
C2       1.00164    0.35395    0.50198   1.00
C3       1.00112    0.33403    0.46592   1.00
O2       1.01079    0.35326    0.43190   1.00
C3       0.99971    0.33174    0.53674   1.00
H1       0.99904    0.34615    0.56477   1.00
C3a      0.99973    0.29287    0.46538   1.00
H1       1.00160    0.27798    0.43762   1.00
C3b      0.99959    0.29078    0.53612   1.00
C4       0.99968    0.27100    0.50028   1.00
O_3      1.07072    0.22833    0.50638   1.00
C5       0.97678    0.36280    0.41076   1.00
H2       0.95979    0.33609    0.40303   1.00
C5       0.98995    0.38334    0.37335   1.00
H2       0.95762    0.38274    0.42790   1.00
H2       0.99961    0.36077    0.35207   1.00
H2       1.01623    0.40101    0.38068   1.00
C5       0.95790    0.40931    0.35537   1.00
H2       0.93088    0.39189    0.35111   1.00
H2       0.96739    0.42109    0.32661   1.00
H2       0.95141    0.43506    0.37433   1.00
C5       1.12450    0.25980    0.47659   1.00
H2       1.14654    0.23782    0.48596   1.00
H2       1.12058    0.28045    0.50140   1.00
C5       1.13851    0.28197    0.44011   1.00
H2       1.16850    0.29334    0.44492   1.00
C5       1.01647    0.37406    0.11773   1.00
H2       0.98860    0.38036    0.10245   1.00
H2       1.00979    0.35054    0.13901   1.00
C5       1.04722    0.35996    0.08781   1.00
H2       1.04318    0.32843    0.08110   1.00
H2       1.07714    0.36453    0.09960   1.00
O_3      1.07069    0.49705    0.27000   1.00
C4       0.99958    0.50015    0.22900   1.00
C3c      0.99749    0.46529    0.20757   1.00
H1       0.99572    0.43769    0.22275   1.00
C3d      1.00130    0.53583    0.20865   1.00
C3       0.99820    0.46534    0.16646   1.00
O2       0.99126    0.43061    0.14752   1.00
C3       1.00276    0.53594    0.16773   1.00
H1       1.00548    0.56392    0.15343   1.00
C2       1.00111    0.50092    0.14561   1.00
C5       1.08992    0.53347    0.27121   1.00
H2       1.09682    0.54273    0.30162   1.00
H2       1.07185    0.55674    0.25734   1.00
C5       1.12794    0.52933    0.24878   1.00
H2       1.12113    0.51902    0.21871   1.00
H2       1.14590    0.50629    0.26309   1.00
C5       1.15015    0.56816    0.24746   1.00
H2       1.15681    0.57877    0.27740   1.00
H2       1.13280    0.59083    0.23197   1.00
H2       1.17825    0.56436    0.23170   1.00
C5       0.96961    0.58590    0.23895   1.00
C5       1.02702    0.41174    0.13930   1.00
H2       0.95397    0.56585    0.25912   1.00
H2       0.95084    0.59120    0.21288   1.00
H2       1.04270    0.40489    0.16700   1.00
H2       1.04693    0.43009    0.12105   1.00
H2       1.04428    0.37583    0.05945   1.00
H2       0.93370    0.61932    0.30750   1.00
H2       0.91426    0.63924    0.26234   1.00
C2       1.00198    0.50164    0.35395   1.00
C3       0.96592    0.50112    0.33403   1.00
O2       0.93190    0.51079    0.35326   1.00
C3       1.03674    0.49971    0.33174   1.00
H1       1.06477    0.49904    0.34615   1.00
C3a      0.96538    0.49973    0.29287   1.00
H1       0.93762    0.50160    0.27798   1.00
C3b      1.03612    0.49959    0.29078   1.00
C4       1.00028    0.49968    0.27100   1.00
O_3      1.00638    0.57072    0.22833   1.00
C5       0.91076    0.47678    0.36280   1.00
H2       0.90303    0.45979    0.33609   1.00
C5       0.87335    0.48995    0.38334   1.00
H2       0.92790    0.45762    0.38274   1.00
H2       0.85207    0.49961    0.36077   1.00
H2       0.88068    0.51623    0.40101   1.00
C5       0.85537    0.45790    0.40931   1.00
H2       0.85111    0.43088    0.39189   1.00
H2       0.82661    0.46739    0.42109   1.00
H2       0.87433    0.45141    0.43506   1.00
C5       0.97659    0.62450    0.25980   1.00
H2       0.98596    0.64654    0.23782   1.00
H2       1.00140    0.62058    0.28045   1.00
C5       0.94011    0.63851    0.28197   1.00
H2       0.94492    0.66850    0.29334   1.00
