data_IRMOF10_SG202_interpen_Ligand1lp_label_k.

_audit_creation_method             'generated by an auxiliary program of Tobunporous'

_symmetry_space_group_name_H-M     'P 1'
_symmetry_Int_Tables_number        1
_symmetry_cell_setting             triclinic

_cell_length_a                    34.2800
_cell_length_b                    34.2800
_cell_length_c                    34.2800
_cell_angle_alpha                 90.0000
_cell_angle_beta                  90.0000
_cell_angle_gamma                 90.0000

loop_
_atom_site_label
_atom_site_fract_x
_atom_site_fract_y
_atom_site_fract_z
_atom_site_occupancy
O1       0.75000    0.75000    0.75000   1.00
Zn1      0.71720    0.78280    0.78280   1.00
Zn1      0.78280    0.71720    0.78280   1.00
Zn1      0.78280    0.78280    0.71720   1.00
Zn1      0.71720    0.71720    0.71720   1.00
O2       0.72650    0.77350    0.83820   1.00
O2       0.72650    0.83820    0.77350   1.00
O2       0.66180    0.77350    0.77350   1.00
O2       0.77350    0.72650    0.83820   1.00
O2       0.83820    0.72650    0.77350   1.00
O2       0.77350    0.66180    0.77350   1.00
O2       0.77350    0.83820    0.72650   1.00
O2       0.83820    0.77350    0.72650   1.00
O2       0.77350    0.77350    0.66180   1.00
O2       0.66180    0.72650    0.72650   1.00
O2       0.72650    0.66180    0.72650   1.00
O2       0.72650    0.72650    0.66180   1.00
C1       0.75000    0.75000    0.85520   1.00
C1       0.75000    0.85520    0.75000   1.00
C1       0.64480    0.75000    0.75000   1.00
C1       0.85520    0.75000    0.75000   1.00
C1       0.75000    0.64480    0.75000   1.00
C1       0.75000    0.75000    0.64480   1.00
O1       0.25000    0.25000    0.75000   1.00
Zn1      0.21720    0.28280    0.78280   1.00
Zn1      0.28280    0.21720    0.78280   1.00
Zn1      0.28280    0.28280    0.71720   1.00
Zn1      0.21720    0.21720    0.71720   1.00
O2       0.22650    0.27350    0.83820   1.00
O2       0.22650    0.33820    0.77350   1.00
O2       0.16180    0.27350    0.77350   1.00
O2       0.27350    0.22650    0.83820   1.00
O2       0.33820    0.22650    0.77350   1.00
O2       0.27350    0.16180    0.77350   1.00
O2       0.27350    0.33820    0.72650   1.00
O2       0.33820    0.27350    0.72650   1.00
O2       0.27350    0.27350    0.66180   1.00
O2       0.16180    0.22650    0.72650   1.00
O2       0.22650    0.16180    0.72650   1.00
O2       0.22650    0.22650    0.66180   1.00
C1       0.25000    0.25000    0.85520   1.00
C1       0.25000    0.35520    0.75000   1.00
C1       0.14480    0.25000    0.75000   1.00
C1       0.35520    0.25000    0.75000   1.00
C1       0.25000    0.14480    0.75000   1.00
C1       0.25000    0.25000    0.64480   1.00
O1       0.25000    0.75000    0.25000   1.00
Zn1      0.21720    0.78280    0.28280   1.00
Zn1      0.28280    0.71720    0.28280   1.00
Zn1      0.28280    0.78280    0.21720   1.00
Zn1      0.21720    0.71720    0.21720   1.00
O2       0.22650    0.77350    0.33820   1.00
O2       0.22650    0.83820    0.27350   1.00
O2       0.16180    0.77350    0.27350   1.00
O2       0.27350    0.72650    0.33820   1.00
O2       0.33820    0.72650    0.27350   1.00
O2       0.27350    0.66180    0.27350   1.00
O2       0.27350    0.83820    0.22650   1.00
O2       0.33820    0.77350    0.22650   1.00
O2       0.27350    0.77350    0.16180   1.00
O2       0.16180    0.72650    0.22650   1.00
O2       0.22650    0.66180    0.22650   1.00
O2       0.22650    0.72650    0.16180   1.00
C1       0.25000    0.75000    0.35520   1.00
C1       0.25000    0.85520    0.25000   1.00
C1       0.14480    0.75000    0.25000   1.00
C1       0.35520    0.75000    0.25000   1.00
C1       0.25000    0.64480    0.25000   1.00
C1       0.25000    0.75000    0.14480   1.00
O1       0.75000    0.25000    0.25000   1.00
Zn1      0.71720    0.28280    0.28280   1.00
Zn1      0.78280    0.21720    0.28280   1.00
Zn1      0.78280    0.28280    0.21720   1.00
Zn1      0.71720    0.21720    0.21720   1.00
O2       0.72650    0.27350    0.33820   1.00
O2       0.72650    0.33820    0.27350   1.00
O2       0.66180    0.27350    0.27350   1.00
O2       0.77350    0.22650    0.33820   1.00
O2       0.83820    0.22650    0.27350   1.00
O2       0.77350    0.16180    0.27350   1.00
O2       0.77350    0.33820    0.22650   1.00
O2       0.83820    0.27350    0.22650   1.00
O2       0.77350    0.27350    0.16180   1.00
O2       0.66180    0.22650    0.22650   1.00
O2       0.72650    0.16180    0.22650   1.00
O2       0.72650    0.22650    0.16180   1.00
C1       0.75000    0.25000    0.35520   1.00
C1       0.75000    0.35520    0.25000   1.00
C1       0.64480    0.25000    0.25000   1.00
C1       0.85520    0.25000    0.25000   1.00
C1       0.75000    0.14480    0.25000   1.00
C1       0.75000    0.25000    0.14480   1.00
O1       0.25000    0.25000    0.25000   1.00
Zn1      0.28280    0.21720    0.21720   1.00
Zn1      0.21720    0.28280    0.21720   1.00
Zn1      0.21720    0.21720    0.28280   1.00
Zn1      0.28280    0.28280    0.28280   1.00
O2       0.27350    0.22650    0.16180   1.00
O2       0.27350    0.16180    0.22650   1.00
O2       0.33820    0.22650    0.22650   1.00
O2       0.22650    0.27350    0.16180   1.00
O2       0.16180    0.27350    0.22650   1.00
O2       0.22650    0.33820    0.22650   1.00
O2       0.22650    0.16180    0.27350   1.00
O2       0.16180    0.22650    0.27350   1.00
O2       0.22650    0.22650    0.33820   1.00
O2       0.33820    0.27350    0.27350   1.00
O2       0.27350    0.33820    0.27350   1.00
O2       0.27350    0.27350    0.33820   1.00
C1       0.25000    0.25000    0.14480   1.00
C1       0.25000    0.14480    0.25000   1.00
C1       0.35520    0.25000    0.25000   1.00
C1       0.14480    0.25000    0.25000   1.00
C1       0.25000    0.35520    0.25000   1.00
C1       0.25000    0.25000    0.35520   1.00
O1       0.75000    0.75000    0.25000   1.00
Zn1      0.78280    0.71720    0.21720   1.00
Zn1      0.71720    0.78280    0.21720   1.00
Zn1      0.71720    0.71720    0.28280   1.00
Zn1      0.78280    0.78280    0.28280   1.00
O2       0.77350    0.72650    0.16180   1.00
O2       0.77350    0.66180    0.22650   1.00
O2       0.83820    0.72650    0.22650   1.00
O2       0.72650    0.77350    0.16180   1.00
O2       0.66180    0.77350    0.22650   1.00
O2       0.72650    0.83820    0.22650   1.00
O2       0.72650    0.66180    0.27350   1.00
O2       0.66180    0.72650    0.27350   1.00
O2       0.72650    0.72650    0.33820   1.00
O2       0.83820    0.77350    0.27350   1.00
O2       0.77350    0.83820    0.27350   1.00
O2       0.77350    0.77350    0.33820   1.00
C1       0.75000    0.75000    0.14480   1.00
C1       0.75000    0.64480    0.25000   1.00
C1       0.85520    0.75000    0.25000   1.00
C1       0.64480    0.75000    0.25000   1.00
C1       0.75000    0.85520    0.25000   1.00
C1       0.75000    0.75000    0.35520   1.00
O1       0.75000    0.25000    0.75000   1.00
Zn1      0.78280    0.21720    0.71720   1.00
Zn1      0.71720    0.28280    0.71720   1.00
Zn1      0.71720    0.21720    0.78280   1.00
Zn1      0.78280    0.28280    0.78280   1.00
O2       0.77350    0.22650    0.66180   1.00
O2       0.77350    0.16180    0.72650   1.00
O2       0.83820    0.22650    0.72650   1.00
O2       0.72650    0.27350    0.66180   1.00
O2       0.66180    0.27350    0.72650   1.00
O2       0.72650    0.33820    0.72650   1.00
O2       0.72650    0.16180    0.77350   1.00
O2       0.66180    0.22650    0.77350   1.00
O2       0.72650    0.22650    0.83820   1.00
O2       0.83820    0.27350    0.77350   1.00
O2       0.77350    0.33820    0.77350   1.00
O2       0.77350    0.27350    0.83820   1.00
C1       0.75000    0.25000    0.64480   1.00
C1       0.75000    0.14480    0.75000   1.00
C1       0.85520    0.25000    0.75000   1.00
C1       0.64480    0.25000    0.75000   1.00
C1       0.75000    0.35520    0.75000   1.00
C1       0.75000    0.25000    0.85520   1.00
O1       0.25000    0.75000    0.75000   1.00
Zn1      0.28280    0.71720    0.71720   1.00
Zn1      0.21720    0.78280    0.71720   1.00
Zn1      0.21720    0.71720    0.78280   1.00
Zn1      0.28280    0.78280    0.78280   1.00
O2       0.27350    0.72650    0.66180   1.00
O2       0.27350    0.66180    0.72650   1.00
O2       0.33820    0.72650    0.72650   1.00
O2       0.22650    0.77350    0.66180   1.00
O2       0.16180    0.77350    0.72650   1.00
O2       0.22650    0.83820    0.72650   1.00
O2       0.22650    0.66180    0.77350   1.00
O2       0.16180    0.72650    0.77350   1.00
O2       0.22650    0.72650    0.83820   1.00
O2       0.33820    0.77350    0.77350   1.00
O2       0.27350    0.83820    0.77350   1.00
O2       0.27350    0.77350    0.83820   1.00
C1       0.25000    0.75000    0.64480   1.00
C1       0.25000    0.64480    0.75000   1.00
C1       0.35520    0.75000    0.75000   1.00
C1       0.14480    0.75000    0.75000   1.00
C1       0.25000    0.85520    0.75000   1.00
C1       0.25000    0.75000    0.85520   1.00
O1       1.00000    1.00000    1.00000   1.00
Zn1      0.96720    1.03280    1.03280   1.00
Zn1      1.03280    0.96720    1.03280   1.00
Zn1      1.03280    1.03280    0.96720   1.00
Zn1      0.96720    0.96720    0.96720   1.00
O2       0.97650    1.02350    1.08820   1.00
O2       0.97650    1.08820    1.02350   1.00
O2       0.91180    1.02350    1.02350   1.00
O2       1.02350    0.97650    1.08820   1.00
O2       1.08820    0.97650    1.02350   1.00
O2       1.02350    0.91180    1.02350   1.00
O2       1.02350    1.08820    0.97650   1.00
O2       1.08820    1.02350    0.97650   1.00
O2       1.02350    1.02350    0.91180   1.00
O2       0.91180    0.97650    0.97650   1.00
O2       0.97650    0.91180    0.97650   1.00
O2       0.97650    0.97650    0.91180   1.00
C1       1.00000    1.00000    1.10520   1.00
C1       1.00000    1.10520    1.00000   1.00
C1       0.89480    1.00000    1.00000   1.00
C1       1.10520    1.00000    1.00000   1.00
C1       1.00000    0.89480    1.00000   1.00
C1       1.00000    1.00000    0.89480   1.00
O1       0.50000    0.50000    1.00000   1.00
Zn1      0.46720    0.53280    1.03280   1.00
Zn1      0.53280    0.46720    1.03280   1.00
Zn1      0.53280    0.53280    0.96720   1.00
Zn1      0.46720    0.46720    0.96720   1.00
O2       0.47650    0.52350    1.08820   1.00
O2       0.47650    0.58820    1.02350   1.00
O2       0.41180    0.52350    1.02350   1.00
O2       0.52350    0.47650    1.08820   1.00
O2       0.58820    0.47650    1.02350   1.00
O2       0.52350    0.41180    1.02350   1.00
O2       0.52350    0.58820    0.97650   1.00
O2       0.58820    0.52350    0.97650   1.00
O2       0.52350    0.52350    0.91180   1.00
O2       0.41180    0.47650    0.97650   1.00
O2       0.47650    0.41180    0.97650   1.00
O2       0.47650    0.47650    0.91180   1.00
C1       0.50000    0.50000    1.10520   1.00
C1       0.50000    0.60520    1.00000   1.00
C1       0.39480    0.50000    1.00000   1.00
C1       0.60520    0.50000    1.00000   1.00
C1       0.50000    0.39480    1.00000   1.00
C1       0.50000    0.50000    0.89480   1.00
O1       0.50000    1.00000    0.50000   1.00
Zn1      0.46720    1.03280    0.53280   1.00
Zn1      0.53280    0.96720    0.53280   1.00
Zn1      0.53280    1.03280    0.46720   1.00
Zn1      0.46720    0.96720    0.46720   1.00
O2       0.47650    1.02350    0.58820   1.00
O2       0.47650    1.08820    0.52350   1.00
O2       0.41180    1.02350    0.52350   1.00
O2       0.52350    0.97650    0.58820   1.00
O2       0.58820    0.97650    0.52350   1.00
O2       0.52350    0.91180    0.52350   1.00
O2       0.52350    1.08820    0.47650   1.00
O2       0.58820    1.02350    0.47650   1.00
O2       0.52350    1.02350    0.41180   1.00
O2       0.41180    0.97650    0.47650   1.00
O2       0.47650    0.91180    0.47650   1.00
O2       0.47650    0.97650    0.41180   1.00
C1       0.50000    1.00000    0.60520   1.00
C1       0.50000    1.10520    0.50000   1.00
C1       0.39480    1.00000    0.50000   1.00
C1       0.60520    1.00000    0.50000   1.00
C1       0.50000    0.89480    0.50000   1.00
C1       0.50000    1.00000    0.39480   1.00
O1       1.00000    0.50000    0.50000   1.00
Zn1      0.96720    0.53280    0.53280   1.00
Zn1      1.03280    0.46720    0.53280   1.00
Zn1      1.03280    0.53280    0.46720   1.00
Zn1      0.96720    0.46720    0.46720   1.00
O2       0.97650    0.52350    0.58820   1.00
O2       0.97650    0.58820    0.52350   1.00
O2       0.91180    0.52350    0.52350   1.00
O2       1.02350    0.47650    0.58820   1.00
O2       1.08820    0.47650    0.52350   1.00
O2       1.02350    0.41180    0.52350   1.00
O2       1.02350    0.58820    0.47650   1.00
O2       1.08820    0.52350    0.47650   1.00
O2       1.02350    0.52350    0.41180   1.00
O2       0.91180    0.47650    0.47650   1.00
O2       0.97650    0.41180    0.47650   1.00
O2       0.97650    0.47650    0.41180   1.00
C1       1.00000    0.50000    0.60520   1.00
C1       1.00000    0.60520    0.50000   1.00
C1       0.89480    0.50000    0.50000   1.00
C1       1.10520    0.50000    0.50000   1.00
C1       1.00000    0.39480    0.50000   1.00
C1       1.00000    0.50000    0.39480   1.00
O1       0.50000    0.50000    0.50000   1.00
Zn1      0.53280    0.46720    0.46720   1.00
Zn1      0.46720    0.53280    0.46720   1.00
Zn1      0.46720    0.46720    0.53280   1.00
Zn1      0.53280    0.53280    0.53280   1.00
O2       0.52350    0.47650    0.41180   1.00
O2       0.52350    0.41180    0.47650   1.00
O2       0.58820    0.47650    0.47650   1.00
O2       0.47650    0.52350    0.41180   1.00
O2       0.41180    0.52350    0.47650   1.00
O2       0.47650    0.58820    0.47650   1.00
O2       0.47650    0.41180    0.52350   1.00
O2       0.41180    0.47650    0.52350   1.00
O2       0.47650    0.47650    0.58820   1.00
O2       0.58820    0.52350    0.52350   1.00
O2       0.52350    0.58820    0.52350   1.00
O2       0.52350    0.52350    0.58820   1.00
C1       0.50000    0.50000    0.39480   1.00
C1       0.50000    0.39480    0.50000   1.00
C1       0.60520    0.50000    0.50000   1.00
C1       0.39480    0.50000    0.50000   1.00
C1       0.50000    0.60520    0.50000   1.00
C1       0.50000    0.50000    0.60520   1.00
O1       1.00000    1.00000    0.50000   1.00
Zn1      1.03280    0.96720    0.46720   1.00
Zn1      0.96720    1.03280    0.46720   1.00
Zn1      0.96720    0.96720    0.53280   1.00
Zn1      1.03280    1.03280    0.53280   1.00
O2       1.02350    0.97650    0.41180   1.00
O2       1.02350    0.91180    0.47650   1.00
O2       1.08820    0.97650    0.47650   1.00
O2       0.97650    1.02350    0.41180   1.00
O2       0.91180    1.02350    0.47650   1.00
O2       0.97650    1.08820    0.47650   1.00
O2       0.97650    0.91180    0.52350   1.00
O2       0.91180    0.97650    0.52350   1.00
O2       0.97650    0.97650    0.58820   1.00
O2       1.08820    1.02350    0.52350   1.00
O2       1.02350    1.08820    0.52350   1.00
O2       1.02350    1.02350    0.58820   1.00
C1       1.00000    1.00000    0.39480   1.00
C1       1.00000    0.89480    0.50000   1.00
C1       1.10520    1.00000    0.50000   1.00
C1       0.89480    1.00000    0.50000   1.00
C1       1.00000    1.10520    0.50000   1.00
C1       1.00000    1.00000    0.60520   1.00
O1       1.00000    0.50000    1.00000   1.00
Zn1      1.03280    0.46720    0.96720   1.00
Zn1      0.96720    0.53280    0.96720   1.00
Zn1      0.96720    0.46720    1.03280   1.00
Zn1      1.03280    0.53280    1.03280   1.00
O2       1.02350    0.47650    0.91180   1.00
O2       1.02350    0.41180    0.97650   1.00
O2       1.08820    0.47650    0.97650   1.00
O2       0.97650    0.52350    0.91180   1.00
O2       0.91180    0.52350    0.97650   1.00
O2       0.97650    0.58820    0.97650   1.00
O2       0.97650    0.41180    1.02350   1.00
O2       0.91180    0.47650    1.02350   1.00
O2       0.97650    0.47650    1.08820   1.00
O2       1.08820    0.52350    1.02350   1.00
O2       1.02350    0.58820    1.02350   1.00
O2       1.02350    0.52350    1.08820   1.00
C1       1.00000    0.50000    0.89480   1.00
C1       1.00000    0.39480    1.00000   1.00
C1       1.10520    0.50000    1.00000   1.00
C1       0.89480    0.50000    1.00000   1.00
C1       1.00000    0.60520    1.00000   1.00
C1       1.00000    0.50000    1.10520   1.00
O1       0.50000    1.00000    1.00000   1.00
Zn1      0.53280    0.96720    0.96720   1.00
Zn1      0.46720    1.03280    0.96720   1.00
Zn1      0.46720    0.96720    1.03280   1.00
Zn1      0.53280    1.03280    1.03280   1.00
O2       0.52350    0.97650    0.91180   1.00
O2       0.52350    0.91180    0.97650   1.00
O2       0.58820    0.97650    0.97650   1.00
O2       0.47650    1.02350    0.91180   1.00
O2       0.41180    1.02350    0.97650   1.00
O2       0.47650    1.08820    0.97650   1.00
O2       0.47650    0.91180    1.02350   1.00
O2       0.41180    0.97650    1.02350   1.00
O2       0.47650    0.97650    1.08820   1.00
O2       0.58820    1.02350    1.02350   1.00
O2       0.52350    1.08820    1.02350   1.00
O2       0.52350    1.02350    1.08820   1.00
C1       0.50000    1.00000    0.89480   1.00
C1       0.50000    0.89480    1.00000   1.00
C1       0.60520    1.00000    1.00000   1.00
C1       0.39480    1.00000    1.00000   1.00
C1       0.50000    1.10520    1.00000   1.00
C1       0.50000    1.00000    1.10520   1.00
C2       0.75290    0.75072    0.89757   1.00
C3a      0.78644    0.74102    0.91884   1.00
H1       0.81325    0.73376    0.90369   1.00
C3a      0.71820    0.76013    0.91704   1.00
H1       0.69229    0.76762    0.90051   1.00
C3b      0.78567    0.74063    0.95938   1.00
C5       0.82226    0.73007    0.98144   1.00
H2       0.81697    0.70398    0.99984   1.00
H2       0.84700    0.72345    0.96161   1.00
H2       0.83113    0.75461    1.00060   1.00
C3b      0.71668    0.75995    0.95756   1.00
C5       0.67890    0.77021    0.97767   1.00
H2       0.68313    0.79604    0.99670   1.00
H2       0.65532    0.77712    0.95655   1.00
H2       0.66897    0.74542    0.99594   1.00
C4       0.75060    0.75015    0.97873   1.00
C4       0.74940    0.74985    1.02127   1.00
C3b      0.73918    0.71520    1.04101   1.00
C5       0.72937    0.67815    1.01937   1.00
H2       0.75456    0.66888    1.00129   1.00
H2       0.72204    0.65384    1.03949   1.00
H2       0.70395    0.68305    0.99995   1.00
C3b      0.75847    0.78422    1.04204   1.00
C5       0.76947    0.82156    1.02152   1.00
H2       0.74534    0.83110    1.00217   1.00
H2       0.77565    0.84559    1.04235   1.00
H2       0.79595    0.81693    1.00350   1.00
C3a      0.73813    0.71529    1.08155   1.00
H1       0.73031    0.68881    1.09700   1.00
C3a      0.75722    0.78355    1.08257   1.00
H1       0.76414    0.80981    1.09881   1.00
C2       0.74710    0.74928    1.10243   1.00
C2       0.75072    0.89757    0.75290   1.00
C3a      0.74102    0.91884    0.78644   1.00
H1       0.73376    0.90369    0.81325   1.00
C3a      0.76013    0.91704    0.71820   1.00
H1       0.76762    0.90051    0.69229   1.00
C3b      0.74063    0.95938    0.78567   1.00
C5       0.73007    0.98144    0.82226   1.00
H2       0.70398    0.99984    0.81697   1.00
H2       0.72345    0.96161    0.84700   1.00
H2       0.75461    1.00060    0.83113   1.00
C3b      0.75995    0.95756    0.71668   1.00
C5       0.77021    0.97767    0.67890   1.00
H2       0.79604    0.99670    0.68313   1.00
H2       0.77712    0.95655    0.65532   1.00
H2       0.74542    0.99594    0.66897   1.00
C4       0.75015    0.97873    0.75060   1.00
C4       0.74985    1.02127    0.74940   1.00
C3b      0.71520    1.04101    0.73918   1.00
C5       0.67815    1.01937    0.72937   1.00
H2       0.66888    1.00129    0.75456   1.00
H2       0.65384    1.03949    0.72204   1.00
H2       0.68305    0.99995    0.70395   1.00
C3b      0.78422    1.04204    0.75847   1.00
C5       0.82156    1.02152    0.76947   1.00
H2       0.83110    1.00217    0.74534   1.00
H2       0.84559    1.04235    0.77565   1.00
H2       0.81693    1.00350    0.79595   1.00
C3a      0.71529    1.08155    0.73813   1.00
H1       0.68881    1.09700    0.73031   1.00
C3a      0.78355    1.08257    0.75722   1.00
H1       0.80981    1.09881    0.76414   1.00
C2       0.74928    1.10243    0.74710   1.00
C2       0.60243    0.75290    0.74928   1.00
C3a      0.58116    0.78644    0.75898   1.00
H1       0.59631    0.81325    0.76624   1.00
C3a      0.58296    0.71820    0.73987   1.00
H1       0.59949    0.69229    0.73238   1.00
C3b      0.54062    0.78567    0.75937   1.00
C5       0.51856    0.82226    0.76993   1.00
H2       0.50016    0.81697    0.79602   1.00
H2       0.53839    0.84700    0.77655   1.00
H2       0.49940    0.83113    0.74539   1.00
C3b      0.54244    0.71668    0.74005   1.00
C5       0.52233    0.67890    0.72979   1.00
H2       0.50330    0.68313    0.70396   1.00
H2       0.54345    0.65532    0.72288   1.00
H2       0.50406    0.66897    0.75458   1.00
C4       0.52127    0.75060    0.74985   1.00
C4       0.47873    0.74940    0.75015   1.00
C3b      0.45899    0.73918    0.78480   1.00
C5       0.48063    0.72937    0.82185   1.00
H2       0.49871    0.75456    0.83112   1.00
H2       0.46051    0.72204    0.84616   1.00
H2       0.50005    0.70395    0.81695   1.00
C3b      0.45796    0.75847    0.71578   1.00
C5       0.47848    0.76947    0.67844   1.00
H2       0.49783    0.74534    0.66890   1.00
H2       0.45765    0.77565    0.65441   1.00
H2       0.49650    0.79595    0.68307   1.00
C3a      0.41845    0.73813    0.78471   1.00
H1       0.40300    0.73031    0.81119   1.00
C3a      0.41743    0.75722    0.71645   1.00
H1       0.40119    0.76414    0.69019   1.00
C2       0.39757    0.74710    0.75072   1.00
C2       0.89757    0.75290    0.75072   1.00
C3a      0.91884    0.78644    0.74102   1.00
H1       0.90369    0.81325    0.73376   1.00
C3a      0.91704    0.71820    0.76013   1.00
H1       0.90051    0.69229    0.76762   1.00
C3b      0.95938    0.78567    0.74063   1.00
C5       0.98144    0.82226    0.73007   1.00
H2       0.99984    0.81697    0.70398   1.00
H2       0.96161    0.84700    0.72345   1.00
H2       1.00060    0.83113    0.75461   1.00
C3b      0.95756    0.71668    0.75995   1.00
C5       0.97767    0.67890    0.77021   1.00
H2       0.99670    0.68313    0.79604   1.00
H2       0.95655    0.65532    0.77712   1.00
H2       0.99594    0.66897    0.74542   1.00
C4       0.97873    0.75060    0.75015   1.00
C4       1.02127    0.74940    0.74985   1.00
C3b      1.04101    0.73918    0.71520   1.00
C5       1.01937    0.72937    0.67815   1.00
H2       1.00129    0.75456    0.66888   1.00
H2       1.03949    0.72204    0.65384   1.00
H2       0.99995    0.70395    0.68305   1.00
C3b      1.04204    0.75847    0.78422   1.00
C5       1.02152    0.76947    0.82156   1.00
H2       1.00217    0.74534    0.83110   1.00
H2       1.04235    0.77565    0.84559   1.00
H2       1.00350    0.79595    0.81693   1.00
C3a      1.08155    0.73813    0.71529   1.00
H1       1.09700    0.73031    0.68881   1.00
C3a      1.08257    0.75722    0.78355   1.00
H1       1.09881    0.76414    0.80981   1.00
C2       1.10243    0.74710    0.74928   1.00
C2       0.74928    0.60243    0.75290   1.00
C3a      0.75898    0.58116    0.78644   1.00
H1       0.76624    0.59631    0.81325   1.00
C3a      0.73987    0.58296    0.71820   1.00
H1       0.73238    0.59949    0.69229   1.00
C3b      0.75937    0.54062    0.78567   1.00
C5       0.76993    0.51856    0.82226   1.00
H2       0.79602    0.50016    0.81697   1.00
H2       0.77655    0.53839    0.84700   1.00
H2       0.74539    0.49940    0.83113   1.00
C3b      0.74005    0.54244    0.71668   1.00
C5       0.72979    0.52233    0.67890   1.00
H2       0.70396    0.50330    0.68313   1.00
H2       0.72288    0.54345    0.65532   1.00
H2       0.75458    0.50406    0.66897   1.00
C4       0.74985    0.52127    0.75060   1.00
C4       0.75015    0.47873    0.74940   1.00
C3b      0.78480    0.45899    0.73918   1.00
C5       0.82185    0.48063    0.72937   1.00
H2       0.83112    0.49871    0.75456   1.00
H2       0.84616    0.46051    0.72204   1.00
H2       0.81695    0.50005    0.70395   1.00
C3b      0.71578    0.45796    0.75847   1.00
C5       0.67844    0.47848    0.76947   1.00
H2       0.66890    0.49783    0.74534   1.00
H2       0.65441    0.45765    0.77565   1.00
H2       0.68307    0.49650    0.79595   1.00
C3a      0.78471    0.41845    0.73813   1.00
H1       0.81119    0.40300    0.73031   1.00
C3a      0.71645    0.41743    0.75722   1.00
H1       0.69019    0.40119    0.76414   1.00
C2       0.75072    0.39757    0.74710   1.00
C2       0.75290    0.74928    0.60243   1.00
C3a      0.78644    0.75898    0.58116   1.00
H1       0.81325    0.76624    0.59631   1.00
C3a      0.71820    0.73987    0.58296   1.00
H1       0.69229    0.73238    0.59949   1.00
C3b      0.78567    0.75937    0.54062   1.00
C5       0.82226    0.76993    0.51856   1.00
H2       0.81697    0.79602    0.50016   1.00
H2       0.84700    0.77655    0.53839   1.00
H2       0.83113    0.74539    0.49940   1.00
C3b      0.71668    0.74005    0.54244   1.00
C5       0.67890    0.72979    0.52233   1.00
H2       0.68313    0.70396    0.50330   1.00
H2       0.65532    0.72288    0.54345   1.00
H2       0.66897    0.75458    0.50406   1.00
C4       0.75060    0.74985    0.52127   1.00
C4       0.74940    0.75015    0.47873   1.00
C3b      0.73918    0.78480    0.45899   1.00
C5       0.72937    0.82185    0.48063   1.00
H2       0.75456    0.83112    0.49871   1.00
H2       0.72204    0.84616    0.46051   1.00
H2       0.70395    0.81695    0.50005   1.00
C3b      0.75847    0.71578    0.45796   1.00
C5       0.76947    0.67844    0.47848   1.00
H2       0.74534    0.66890    0.49783   1.00
H2       0.77565    0.65441    0.45765   1.00
H2       0.79595    0.68307    0.49650   1.00
C3a      0.73813    0.78471    0.41845   1.00
H1       0.73031    0.81119    0.40300   1.00
C3a      0.75722    0.71645    0.41743   1.00
H1       0.76414    0.69019    0.40119   1.00
C2       0.74710    0.75072    0.39757   1.00
C2       0.25290    0.25072    0.89757   1.00
C3a      0.28644    0.24102    0.91884   1.00
H1       0.31325    0.23376    0.90369   1.00
C3a      0.21820    0.26013    0.91704   1.00
H1       0.19229    0.26762    0.90051   1.00
C3b      0.28567    0.24063    0.95938   1.00
C5       0.32226    0.23007    0.98144   1.00
H2       0.31697    0.20398    0.99984   1.00
H2       0.34700    0.22345    0.96161   1.00
H2       0.33113    0.25461    1.00060   1.00
C3b      0.21668    0.25995    0.95756   1.00
C5       0.17890    0.27021    0.97767   1.00
H2       0.18313    0.29604    0.99670   1.00
H2       0.15532    0.27712    0.95655   1.00
H2       0.16897    0.24542    0.99594   1.00
C4       0.25060    0.25015    0.97873   1.00
C4       0.24940    0.24985    1.02127   1.00
C3b      0.23918    0.21520    1.04101   1.00
C5       0.22937    0.17815    1.01937   1.00
H2       0.25456    0.16888    1.00129   1.00
H2       0.22204    0.15384    1.03949   1.00
H2       0.20395    0.18305    0.99995   1.00
C3b      0.25847    0.28422    1.04204   1.00
C5       0.26947    0.32156    1.02152   1.00
H2       0.24534    0.33110    1.00217   1.00
H2       0.27565    0.34559    1.04235   1.00
H2       0.29595    0.31693    1.00350   1.00
C3a      0.23813    0.21529    1.08155   1.00
H1       0.23031    0.18881    1.09700   1.00
C3a      0.25722    0.28355    1.08257   1.00
H1       0.26414    0.30981    1.09881   1.00
C2       0.24710    0.24928    1.10243   1.00
C2       0.25072    0.39757    0.75290   1.00
C3a      0.24102    0.41884    0.78644   1.00
H1       0.23376    0.40369    0.81325   1.00
C3a      0.26013    0.41704    0.71820   1.00
H1       0.26762    0.40051    0.69229   1.00
C3b      0.24063    0.45938    0.78567   1.00
C5       0.23007    0.48144    0.82226   1.00
H2       0.20398    0.49984    0.81697   1.00
H2       0.22345    0.46161    0.84700   1.00
H2       0.25461    0.50060    0.83113   1.00
C3b      0.25995    0.45756    0.71668   1.00
C5       0.27021    0.47767    0.67890   1.00
H2       0.29604    0.49670    0.68313   1.00
H2       0.27712    0.45655    0.65532   1.00
H2       0.24542    0.49594    0.66897   1.00
C4       0.25015    0.47873    0.75060   1.00
C4       0.24985    0.52127    0.74940   1.00
C3b      0.21520    0.54101    0.73918   1.00
C5       0.17815    0.51937    0.72937   1.00
H2       0.16888    0.50129    0.75456   1.00
H2       0.15384    0.53949    0.72204   1.00
H2       0.18305    0.49995    0.70395   1.00
C3b      0.28422    0.54204    0.75847   1.00
C5       0.32156    0.52152    0.76947   1.00
H2       0.33110    0.50217    0.74534   1.00
H2       0.34559    0.54235    0.77565   1.00
H2       0.31693    0.50350    0.79595   1.00
C3a      0.21529    0.58155    0.73813   1.00
H1       0.18881    0.59700    0.73031   1.00
C3a      0.28355    0.58257    0.75722   1.00
H1       0.30981    0.59881    0.76414   1.00
C2       0.24928    0.60243    0.74710   1.00
C2       0.10243    0.25290    0.74928   1.00
C3a      0.08116    0.28644    0.75898   1.00
H1       0.09631    0.31325    0.76624   1.00
C3a      0.08296    0.21820    0.73987   1.00
H1       0.09949    0.19229    0.73238   1.00
C3b      0.04062    0.28567    0.75937   1.00
C5       0.01856    0.32226    0.76993   1.00
H2       0.00016    0.31697    0.79602   1.00
H2       0.03839    0.34700    0.77655   1.00
H2       -0.00060   0.33113    0.74539   1.00
C3b      0.04244    0.21668    0.74005   1.00
C5       0.02233    0.17890    0.72979   1.00
H2       0.00330    0.18313    0.70396   1.00
H2       0.04345    0.15532    0.72288   1.00
H2       0.00406    0.16897    0.75458   1.00
C4       0.02127    0.25060    0.74985   1.00
C4       -0.02127   0.24940    0.75015   1.00
C3b      -0.04101   0.23918    0.78480   1.00
C5       -0.01937   0.22937    0.82185   1.00
H2       -0.00129   0.25456    0.83112   1.00
H2       -0.03949   0.22204    0.84616   1.00
H2       0.00005    0.20395    0.81695   1.00
C3b      -0.04204   0.25847    0.71578   1.00
C5       -0.02152   0.26947    0.67844   1.00
H2       -0.00217   0.24534    0.66890   1.00
H2       -0.04235   0.27565    0.65441   1.00
H2       -0.00350   0.29595    0.68307   1.00
C3a      -0.08155   0.23813    0.78471   1.00
H1       -0.09700   0.23031    0.81119   1.00
C3a      -0.08257   0.25722    0.71645   1.00
H1       -0.09881   0.26414    0.69019   1.00
C2       -0.10243   0.24710    0.75072   1.00
C2       0.39757    0.25290    0.75072   1.00
C3a      0.41884    0.28644    0.74102   1.00
H1       0.40369    0.31325    0.73376   1.00
C3a      0.41704    0.21820    0.76013   1.00
H1       0.40051    0.19229    0.76762   1.00
C3b      0.45938    0.28567    0.74063   1.00
C5       0.48144    0.32226    0.73007   1.00
H2       0.49984    0.31697    0.70398   1.00
H2       0.46161    0.34700    0.72345   1.00
H2       0.50060    0.33113    0.75461   1.00
C3b      0.45756    0.21668    0.75995   1.00
C5       0.47767    0.17890    0.77021   1.00
H2       0.49670    0.18313    0.79604   1.00
H2       0.45655    0.15532    0.77712   1.00
H2       0.49594    0.16897    0.74542   1.00
C4       0.47873    0.25060    0.75015   1.00
C4       0.52127    0.24940    0.74985   1.00
C3b      0.54101    0.23918    0.71520   1.00
C5       0.51937    0.22937    0.67815   1.00
H2       0.50129    0.25456    0.66888   1.00
H2       0.53949    0.22204    0.65384   1.00
H2       0.49995    0.20395    0.68305   1.00
C3b      0.54204    0.25847    0.78422   1.00
C5       0.52152    0.26947    0.82156   1.00
H2       0.50217    0.24534    0.83110   1.00
H2       0.54235    0.27565    0.84559   1.00
H2       0.50350    0.29595    0.81693   1.00
C3a      0.58155    0.23813    0.71529   1.00
H1       0.59700    0.23031    0.68881   1.00
C3a      0.58257    0.25722    0.78355   1.00
H1       0.59881    0.26414    0.80981   1.00
C2       0.60243    0.24710    0.74928   1.00
C2       0.24928    0.10243    0.75290   1.00
C3a      0.25898    0.08116    0.78644   1.00
H1       0.26624    0.09631    0.81325   1.00
C3a      0.23987    0.08296    0.71820   1.00
H1       0.23238    0.09949    0.69229   1.00
C3b      0.25937    0.04062    0.78567   1.00
C5       0.26993    0.01856    0.82226   1.00
H2       0.29602    0.00016    0.81697   1.00
H2       0.27655    0.03839    0.84700   1.00
H2       0.24539    -0.00060   0.83113   1.00
C3b      0.24005    0.04244    0.71668   1.00
C5       0.22979    0.02233    0.67890   1.00
H2       0.20396    0.00330    0.68313   1.00
H2       0.22288    0.04345    0.65532   1.00
H2       0.25458    0.00406    0.66897   1.00
C4       0.24985    0.02127    0.75060   1.00
C4       0.25015    -0.02127   0.74940   1.00
C3b      0.28480    -0.04101   0.73918   1.00
C5       0.32185    -0.01937   0.72937   1.00
H2       0.33112    -0.00129   0.75456   1.00
H2       0.34616    -0.03949   0.72204   1.00
H2       0.31695    0.00005    0.70395   1.00
C3b      0.21578    -0.04204   0.75847   1.00
C5       0.17844    -0.02152   0.76947   1.00
H2       0.16890    -0.00217   0.74534   1.00
H2       0.15441    -0.04235   0.77565   1.00
H2       0.18307    -0.00350   0.79595   1.00
C3a      0.28471    -0.08155   0.73813   1.00
H1       0.31119    -0.09700   0.73031   1.00
C3a      0.21645    -0.08257   0.75722   1.00
H1       0.19019    -0.09881   0.76414   1.00
C2       0.25072    -0.10243   0.74710   1.00
C2       0.25290    0.24928    0.60243   1.00
C3a      0.28644    0.25898    0.58116   1.00
H1       0.31325    0.26624    0.59631   1.00
C3a      0.21820    0.23987    0.58296   1.00
H1       0.19229    0.23238    0.59949   1.00
C3b      0.28567    0.25937    0.54062   1.00
C5       0.32226    0.26993    0.51856   1.00
H2       0.31697    0.29602    0.50016   1.00
H2       0.34700    0.27655    0.53839   1.00
H2       0.33113    0.24539    0.49940   1.00
C3b      0.21668    0.24005    0.54244   1.00
C5       0.17890    0.22979    0.52233   1.00
H2       0.18313    0.20396    0.50330   1.00
H2       0.15532    0.22288    0.54345   1.00
H2       0.16897    0.25458    0.50406   1.00
C4       0.25060    0.24985    0.52127   1.00
C4       0.24940    0.25015    0.47873   1.00
C3b      0.23918    0.28480    0.45899   1.00
C5       0.22937    0.32185    0.48063   1.00
H2       0.25456    0.33112    0.49871   1.00
H2       0.22204    0.34616    0.46051   1.00
H2       0.20395    0.31695    0.50005   1.00
C3b      0.25847    0.21578    0.45796   1.00
C5       0.26947    0.17844    0.47848   1.00
H2       0.24534    0.16890    0.49783   1.00
H2       0.27565    0.15441    0.45765   1.00
H2       0.29595    0.18307    0.49650   1.00
C3a      0.23813    0.28471    0.41845   1.00
H1       0.23031    0.31119    0.40300   1.00
C3a      0.25722    0.21645    0.41743   1.00
H1       0.26414    0.19019    0.40119   1.00
C2       0.24710    0.25072    0.39757   1.00
C2       0.25290    0.75072    0.39757   1.00
C3a      0.28644    0.74102    0.41884   1.00
H1       0.31325    0.73376    0.40369   1.00
C3a      0.21820    0.76013    0.41704   1.00
H1       0.19229    0.76762    0.40051   1.00
C3b      0.28567    0.74063    0.45938   1.00
C5       0.32226    0.73007    0.48144   1.00
H2       0.31697    0.70398    0.49984   1.00
H2       0.34700    0.72345    0.46161   1.00
H2       0.33113    0.75461    0.50060   1.00
C3b      0.21668    0.75995    0.45756   1.00
C5       0.17890    0.77021    0.47767   1.00
H2       0.18313    0.79604    0.49670   1.00
H2       0.15532    0.77712    0.45655   1.00
H2       0.16897    0.74542    0.49594   1.00
C4       0.25060    0.75015    0.47873   1.00
C4       0.24940    0.74985    0.52127   1.00
C3b      0.23918    0.71520    0.54101   1.00
C5       0.22937    0.67815    0.51937   1.00
H2       0.25456    0.66888    0.50129   1.00
H2       0.22204    0.65384    0.53949   1.00
H2       0.20395    0.68305    0.49995   1.00
C3b      0.25847    0.78422    0.54204   1.00
C5       0.26947    0.82156    0.52152   1.00
H2       0.24534    0.83110    0.50217   1.00
H2       0.27565    0.84559    0.54235   1.00
H2       0.29595    0.81693    0.50350   1.00
C3a      0.23813    0.71529    0.58155   1.00
H1       0.23031    0.68881    0.59700   1.00
C3a      0.25722    0.78355    0.58257   1.00
H1       0.26414    0.80981    0.59881   1.00
C2       0.24710    0.74928    0.60243   1.00
C2       0.25072    0.89757    0.25290   1.00
C3a      0.24102    0.91884    0.28644   1.00
H1       0.23376    0.90369    0.31325   1.00
C3a      0.26013    0.91704    0.21820   1.00
H1       0.26762    0.90051    0.19229   1.00
C3b      0.24063    0.95938    0.28567   1.00
C5       0.23007    0.98144    0.32226   1.00
H2       0.20398    0.99984    0.31697   1.00
H2       0.22345    0.96161    0.34700   1.00
H2       0.25461    1.00060    0.33113   1.00
C3b      0.25995    0.95756    0.21668   1.00
C5       0.27021    0.97767    0.17890   1.00
H2       0.29604    0.99670    0.18313   1.00
H2       0.27712    0.95655    0.15532   1.00
H2       0.24542    0.99594    0.16897   1.00
C4       0.25015    0.97873    0.25060   1.00
C4       0.24985    1.02127    0.24940   1.00
C3b      0.21520    1.04101    0.23918   1.00
C5       0.17815    1.01937    0.22937   1.00
H2       0.16888    1.00129    0.25456   1.00
H2       0.15384    1.03949    0.22204   1.00
H2       0.18305    0.99995    0.20395   1.00
C3b      0.28422    1.04204    0.25847   1.00
C5       0.32156    1.02152    0.26947   1.00
H2       0.33110    1.00217    0.24534   1.00
H2       0.34559    1.04235    0.27565   1.00
H2       0.31693    1.00350    0.29595   1.00
C3a      0.21529    1.08155    0.23813   1.00
H1       0.18881    1.09700    0.23031   1.00
C3a      0.28355    1.08257    0.25722   1.00
H1       0.30981    1.09881    0.26414   1.00
C2       0.24928    1.10243    0.24710   1.00
C2       0.10243    0.75290    0.24928   1.00
C3a      0.08116    0.78644    0.25898   1.00
H1       0.09631    0.81325    0.26624   1.00
C3a      0.08296    0.71820    0.23987   1.00
H1       0.09949    0.69229    0.23238   1.00
C3b      0.04062    0.78567    0.25937   1.00
C5       0.01856    0.82226    0.26993   1.00
H2       0.00016    0.81697    0.29602   1.00
H2       0.03839    0.84700    0.27655   1.00
H2       -0.00060   0.83113    0.24539   1.00
C3b      0.04244    0.71668    0.24005   1.00
C5       0.02233    0.67890    0.22979   1.00
H2       0.00330    0.68313    0.20396   1.00
H2       0.04345    0.65532    0.22288   1.00
H2       0.00406    0.66897    0.25458   1.00
C4       0.02127    0.75060    0.24985   1.00
C4       -0.02127   0.74940    0.25015   1.00
C3b      -0.04101   0.73918    0.28480   1.00
C5       -0.01937   0.72937    0.32185   1.00
H2       -0.00129   0.75456    0.33112   1.00
H2       -0.03949   0.72204    0.34616   1.00
H2       0.00005    0.70395    0.31695   1.00
C3b      -0.04204   0.75847    0.21578   1.00
C5       -0.02152   0.76947    0.17844   1.00
H2       -0.00217   0.74534    0.16890   1.00
H2       -0.04235   0.77565    0.15441   1.00
H2       -0.00350   0.79595    0.18307   1.00
C3a      -0.08155   0.73813    0.28471   1.00
H1       -0.09700   0.73031    0.31119   1.00
C3a      -0.08257   0.75722    0.21645   1.00
H1       -0.09881   0.76414    0.19019   1.00
C2       -0.10243   0.74710    0.25072   1.00
C2       0.39757    0.75290    0.25072   1.00
C3a      0.41884    0.78644    0.24102   1.00
H1       0.40369    0.81325    0.23376   1.00
C3a      0.41704    0.71820    0.26013   1.00
H1       0.40051    0.69229    0.26762   1.00
C3b      0.45938    0.78567    0.24063   1.00
C5       0.48144    0.82226    0.23007   1.00
H2       0.49984    0.81697    0.20398   1.00
H2       0.46161    0.84700    0.22345   1.00
H2       0.50060    0.83113    0.25461   1.00
C3b      0.45756    0.71668    0.25995   1.00
C5       0.47767    0.67890    0.27021   1.00
H2       0.49670    0.68313    0.29604   1.00
H2       0.45655    0.65532    0.27712   1.00
H2       0.49594    0.66897    0.24542   1.00
C4       0.47873    0.75060    0.25015   1.00
C4       0.52127    0.74940    0.24985   1.00
C3b      0.54101    0.73918    0.21520   1.00
C5       0.51937    0.72937    0.17815   1.00
H2       0.50129    0.75456    0.16888   1.00
H2       0.53949    0.72204    0.15384   1.00
H2       0.49995    0.70395    0.18305   1.00
C3b      0.54204    0.75847    0.28422   1.00
C5       0.52152    0.76947    0.32156   1.00
H2       0.50217    0.74534    0.33110   1.00
H2       0.54235    0.77565    0.34559   1.00
H2       0.50350    0.79595    0.31693   1.00
C3a      0.58155    0.73813    0.21529   1.00
H1       0.59700    0.73031    0.18881   1.00
C3a      0.58257    0.75722    0.28355   1.00
H1       0.59881    0.76414    0.30981   1.00
C2       0.60243    0.74710    0.24928   1.00
C2       0.24928    0.60243    0.25290   1.00
C3a      0.25898    0.58116    0.28644   1.00
H1       0.26624    0.59631    0.31325   1.00
C3a      0.23987    0.58296    0.21820   1.00
H1       0.23238    0.59949    0.19229   1.00
C3b      0.25937    0.54062    0.28567   1.00
C5       0.26993    0.51856    0.32226   1.00
H2       0.29602    0.50016    0.31697   1.00
H2       0.27655    0.53839    0.34700   1.00
H2       0.24539    0.49940    0.33113   1.00
C3b      0.24005    0.54244    0.21668   1.00
C5       0.22979    0.52233    0.17890   1.00
H2       0.20396    0.50330    0.18313   1.00
H2       0.22288    0.54345    0.15532   1.00
H2       0.25458    0.50406    0.16897   1.00
C4       0.24985    0.52127    0.25060   1.00
C4       0.25015    0.47873    0.24940   1.00
C3b      0.28480    0.45899    0.23918   1.00
C5       0.32185    0.48063    0.22937   1.00
H2       0.33112    0.49871    0.25456   1.00
H2       0.34616    0.46051    0.22204   1.00
H2       0.31695    0.50005    0.20395   1.00
C3b      0.21578    0.45796    0.25847   1.00
C5       0.17844    0.47848    0.26947   1.00
H2       0.16890    0.49783    0.24534   1.00
H2       0.15441    0.45765    0.27565   1.00
H2       0.18307    0.49650    0.29595   1.00
C3a      0.28471    0.41845    0.23813   1.00
H1       0.31119    0.40300    0.23031   1.00
C3a      0.21645    0.41743    0.25722   1.00
H1       0.19019    0.40119    0.26414   1.00
C2       0.25072    0.39757    0.24710   1.00
C2       0.25290    0.74928    0.10243   1.00
C3a      0.28644    0.75898    0.08116   1.00
H1       0.31325    0.76624    0.09631   1.00
C3a      0.21820    0.73987    0.08296   1.00
H1       0.19229    0.73238    0.09949   1.00
C3b      0.28567    0.75937    0.04062   1.00
C5       0.32226    0.76993    0.01856   1.00
H2       0.31697    0.79602    0.00016   1.00
H2       0.34700    0.77655    0.03839   1.00
H2       0.33113    0.74539    -0.00060   1.00
C3b      0.21668    0.74005    0.04244   1.00
C5       0.17890    0.72979    0.02233   1.00
H2       0.18313    0.70396    0.00330   1.00
H2       0.15532    0.72288    0.04345   1.00
H2       0.16897    0.75458    0.00406   1.00
C4       0.25060    0.74985    0.02127   1.00
C4       0.24940    0.75015    -0.02127   1.00
C3b      0.23918    0.78480    -0.04101   1.00
C5       0.22937    0.82185    -0.01937   1.00
H2       0.25456    0.83112    -0.00129   1.00
H2       0.22204    0.84616    -0.03949   1.00
H2       0.20395    0.81695    0.00005   1.00
C3b      0.25847    0.71578    -0.04204   1.00
C5       0.26947    0.67844    -0.02152   1.00
H2       0.24534    0.66890    -0.00217   1.00
H2       0.27565    0.65441    -0.04235   1.00
H2       0.29595    0.68307    -0.00350   1.00
C3a      0.23813    0.78471    -0.08155   1.00
H1       0.23031    0.81119    -0.09700   1.00
C3a      0.25722    0.71645    -0.08257   1.00
H1       0.26414    0.69019    -0.09881   1.00
C2       0.24710    0.75072    -0.10243   1.00
C2       0.75290    0.25072    0.39757   1.00
C3a      0.78644    0.24102    0.41884   1.00
H1       0.81325    0.23376    0.40369   1.00
C3a      0.71820    0.26013    0.41704   1.00
H1       0.69229    0.26762    0.40051   1.00
C3b      0.78567    0.24063    0.45938   1.00
C5       0.82226    0.23007    0.48144   1.00
H2       0.81697    0.20398    0.49984   1.00
H2       0.84700    0.22345    0.46161   1.00
H2       0.83113    0.25461    0.50060   1.00
C3b      0.71668    0.25995    0.45756   1.00
C5       0.67890    0.27021    0.47767   1.00
H2       0.68313    0.29604    0.49670   1.00
H2       0.65532    0.27712    0.45655   1.00
H2       0.66897    0.24542    0.49594   1.00
C4       0.75060    0.25015    0.47873   1.00
C4       0.74940    0.24985    0.52127   1.00
C3b      0.73918    0.21520    0.54101   1.00
C5       0.72937    0.17815    0.51937   1.00
H2       0.75456    0.16888    0.50129   1.00
H2       0.72204    0.15384    0.53949   1.00
H2       0.70395    0.18305    0.49995   1.00
C3b      0.75847    0.28422    0.54204   1.00
C5       0.76947    0.32156    0.52152   1.00
H2       0.74534    0.33110    0.50217   1.00
H2       0.77565    0.34559    0.54235   1.00
H2       0.79595    0.31693    0.50350   1.00
C3a      0.73813    0.21529    0.58155   1.00
H1       0.73031    0.18881    0.59700   1.00
C3a      0.75722    0.28355    0.58257   1.00
H1       0.76414    0.30981    0.59881   1.00
C2       0.74710    0.24928    0.60243   1.00
C2       0.75072    0.39757    0.25290   1.00
C3a      0.74102    0.41884    0.28644   1.00
H1       0.73376    0.40369    0.31325   1.00
C3a      0.76013    0.41704    0.21820   1.00
H1       0.76762    0.40051    0.19229   1.00
C3b      0.74063    0.45938    0.28567   1.00
C5       0.73007    0.48144    0.32226   1.00
H2       0.70398    0.49984    0.31697   1.00
H2       0.72345    0.46161    0.34700   1.00
H2       0.75461    0.50060    0.33113   1.00
C3b      0.75995    0.45756    0.21668   1.00
C5       0.77021    0.47767    0.17890   1.00
H2       0.79604    0.49670    0.18313   1.00
H2       0.77712    0.45655    0.15532   1.00
H2       0.74542    0.49594    0.16897   1.00
C4       0.75015    0.47873    0.25060   1.00
C4       0.74985    0.52127    0.24940   1.00
C3b      0.71520    0.54101    0.23918   1.00
C5       0.67815    0.51937    0.22937   1.00
H2       0.66888    0.50129    0.25456   1.00
H2       0.65384    0.53949    0.22204   1.00
H2       0.68305    0.49995    0.20395   1.00
C3b      0.78422    0.54204    0.25847   1.00
C5       0.82156    0.52152    0.26947   1.00
H2       0.83110    0.50217    0.24534   1.00
H2       0.84559    0.54235    0.27565   1.00
H2       0.81693    0.50350    0.29595   1.00
C3a      0.71529    0.58155    0.23813   1.00
H1       0.68881    0.59700    0.23031   1.00
C3a      0.78355    0.58257    0.25722   1.00
H1       0.80981    0.59881    0.26414   1.00
C2       0.74928    0.60243    0.24710   1.00
C2       0.60243    0.25290    0.24928   1.00
C3a      0.58116    0.28644    0.25898   1.00
H1       0.59631    0.31325    0.26624   1.00
C3a      0.58296    0.21820    0.23987   1.00
H1       0.59949    0.19229    0.23238   1.00
C3b      0.54062    0.28567    0.25937   1.00
C5       0.51856    0.32226    0.26993   1.00
H2       0.50016    0.31697    0.29602   1.00
H2       0.53839    0.34700    0.27655   1.00
H2       0.49940    0.33113    0.24539   1.00
C3b      0.54244    0.21668    0.24005   1.00
C5       0.52233    0.17890    0.22979   1.00
H2       0.50330    0.18313    0.20396   1.00
H2       0.54345    0.15532    0.22288   1.00
H2       0.50406    0.16897    0.25458   1.00
C4       0.52127    0.25060    0.24985   1.00
C4       0.47873    0.24940    0.25015   1.00
C3b      0.45899    0.23918    0.28480   1.00
C5       0.48063    0.22937    0.32185   1.00
H2       0.49871    0.25456    0.33112   1.00
H2       0.46051    0.22204    0.34616   1.00
H2       0.50005    0.20395    0.31695   1.00
C3b      0.45796    0.25847    0.21578   1.00
C5       0.47848    0.26947    0.17844   1.00
H2       0.49783    0.24534    0.16890   1.00
H2       0.45765    0.27565    0.15441   1.00
H2       0.49650    0.29595    0.18307   1.00
C3a      0.41845    0.23813    0.28471   1.00
H1       0.40300    0.23031    0.31119   1.00
C3a      0.41743    0.25722    0.21645   1.00
H1       0.40119    0.26414    0.19019   1.00
C2       0.39757    0.24710    0.25072   1.00
C2       0.89757    0.25290    0.25072   1.00
C3a      0.91884    0.28644    0.24102   1.00
H1       0.90369    0.31325    0.23376   1.00
C3a      0.91704    0.21820    0.26013   1.00
H1       0.90051    0.19229    0.26762   1.00
C3b      0.95938    0.28567    0.24063   1.00
C5       0.98144    0.32226    0.23007   1.00
H2       0.99984    0.31697    0.20398   1.00
H2       0.96161    0.34700    0.22345   1.00
H2       1.00060    0.33113    0.25461   1.00
C3b      0.95756    0.21668    0.25995   1.00
C5       0.97767    0.17890    0.27021   1.00
H2       0.99670    0.18313    0.29604   1.00
H2       0.95655    0.15532    0.27712   1.00
H2       0.99594    0.16897    0.24542   1.00
C4       0.97873    0.25060    0.25015   1.00
C4       1.02127    0.24940    0.24985   1.00
C3b      1.04101    0.23918    0.21520   1.00
C5       1.01937    0.22937    0.17815   1.00
H2       1.00129    0.25456    0.16888   1.00
H2       1.03949    0.22204    0.15384   1.00
H2       0.99995    0.20395    0.18305   1.00
C3b      1.04204    0.25847    0.28422   1.00
C5       1.02152    0.26947    0.32156   1.00
H2       1.00217    0.24534    0.33110   1.00
H2       1.04235    0.27565    0.34559   1.00
H2       1.00350    0.29595    0.31693   1.00
C3a      1.08155    0.23813    0.21529   1.00
H1       1.09700    0.23031    0.18881   1.00
C3a      1.08257    0.25722    0.28355   1.00
H1       1.09881    0.26414    0.30981   1.00
C2       1.10243    0.24710    0.24928   1.00
C2       0.74928    0.10243    0.25290   1.00
C3a      0.75898    0.08116    0.28644   1.00
H1       0.76624    0.09631    0.31325   1.00
C3a      0.73987    0.08296    0.21820   1.00
H1       0.73238    0.09949    0.19229   1.00
C3b      0.75937    0.04062    0.28567   1.00
C5       0.76993    0.01856    0.32226   1.00
H2       0.79602    0.00016    0.31697   1.00
H2       0.77655    0.03839    0.34700   1.00
H2       0.74539    -0.00060   0.33113   1.00
C3b      0.74005    0.04244    0.21668   1.00
C5       0.72979    0.02233    0.17890   1.00
H2       0.70396    0.00330    0.18313   1.00
H2       0.72288    0.04345    0.15532   1.00
H2       0.75458    0.00406    0.16897   1.00
C4       0.74985    0.02127    0.25060   1.00
C4       0.75015    -0.02127   0.24940   1.00
C3b      0.78480    -0.04101   0.23918   1.00
C5       0.82185    -0.01937   0.22937   1.00
H2       0.83112    -0.00129   0.25456   1.00
H2       0.84616    -0.03949   0.22204   1.00
H2       0.81695    0.00005    0.20395   1.00
C3b      0.71578    -0.04204   0.25847   1.00
C5       0.67844    -0.02152   0.26947   1.00
H2       0.66890    -0.00217   0.24534   1.00
H2       0.65441    -0.04235   0.27565   1.00
H2       0.68307    -0.00350   0.29595   1.00
C3a      0.78471    -0.08155   0.23813   1.00
H1       0.81119    -0.09700   0.23031   1.00
C3a      0.71645    -0.08257   0.25722   1.00
H1       0.69019    -0.09881   0.26414   1.00
C2       0.75072    -0.10243   0.24710   1.00
C2       0.75290    0.24928    0.10243   1.00
C3a      0.78644    0.25898    0.08116   1.00
H1       0.81325    0.26624    0.09631   1.00
C3a      0.71820    0.23987    0.08296   1.00
H1       0.69229    0.23238    0.09949   1.00
C3b      0.78567    0.25937    0.04062   1.00
C5       0.82226    0.26993    0.01856   1.00
H2       0.81697    0.29602    0.00016   1.00
H2       0.84700    0.27655    0.03839   1.00
H2       0.83113    0.24539    -0.00060   1.00
C3b      0.71668    0.24005    0.04244   1.00
C5       0.67890    0.22979    0.02233   1.00
H2       0.68313    0.20396    0.00330   1.00
H2       0.65532    0.22288    0.04345   1.00
H2       0.66897    0.25458    0.00406   1.00
C4       0.75060    0.24985    0.02127   1.00
C4       0.74940    0.25015    -0.02127   1.00
C3b      0.73918    0.28480    -0.04101   1.00
C5       0.72937    0.32185    -0.01937   1.00
H2       0.75456    0.33112    -0.00129   1.00
H2       0.72204    0.34616    -0.03949   1.00
H2       0.70395    0.31695    0.00005   1.00
C3b      0.75847    0.21578    -0.04204   1.00
C5       0.76947    0.17844    -0.02152   1.00
H2       0.74534    0.16890    -0.00217   1.00
H2       0.77565    0.15441    -0.04235   1.00
H2       0.79595    0.18307    -0.00350   1.00
C3a      0.73813    0.28471    -0.08155   1.00
H1       0.73031    0.31119    -0.09700   1.00
C3a      0.75722    0.21645    -0.08257   1.00
H1       0.76414    0.19019    -0.09881   1.00
C2       0.74710    0.25072    -0.10243   1.00
C2       1.00290    1.00072    1.14757   1.00
C3a      1.03644    0.99102    1.16884   1.00
H1       1.06325    0.98376    1.15369   1.00
C3a      0.96820    1.01013    1.16704   1.00
H1       0.94229    1.01762    1.15051   1.00
C3b      1.03567    0.99063    1.20938   1.00
C5       1.07226    0.98007    1.23144   1.00
H2       1.06697    0.95398    1.24984   1.00
H2       1.09700    0.97345    1.21161   1.00
H2       1.08113    1.00461    1.25060   1.00
C3b      0.96668    1.00995    1.20756   1.00
C5       0.92890    1.02021    1.22767   1.00
H2       0.93313    1.04604    1.24670   1.00
H2       0.90532    1.02712    1.20655   1.00
H2       0.91897    0.99542    1.24594   1.00
C4       1.00060    1.00015    1.22873   1.00
C4       0.99940    0.99985    1.27127   1.00
C3b      0.98918    0.96520    1.29101   1.00
C5       0.97937    0.92815    1.26937   1.00
H2       1.00456    0.91888    1.25129   1.00
H2       0.97204    0.90384    1.28949   1.00
H2       0.95395    0.93305    1.24995   1.00
C3b      1.00847    1.03422    1.29204   1.00
C5       1.01947    1.07156    1.27152   1.00
H2       0.99534    1.08110    1.25217   1.00
H2       1.02565    1.09559    1.29235   1.00
H2       1.04595    1.06693    1.25350   1.00
C3a      0.98813    0.96529    1.33155   1.00
H1       0.98031    0.93881    1.34700   1.00
C3a      1.00722    1.03355    1.33257   1.00
H1       1.01414    1.05981    1.34881   1.00
C2       0.99710    0.99928    1.35243   1.00
C2       1.00072    1.14757    1.00290   1.00
C3a      0.99102    1.16884    1.03644   1.00
H1       0.98376    1.15369    1.06325   1.00
C3a      1.01013    1.16704    0.96820   1.00
H1       1.01762    1.15051    0.94229   1.00
C3b      0.99063    1.20938    1.03567   1.00
C5       0.98007    1.23144    1.07226   1.00
H2       0.95398    1.24984    1.06697   1.00
H2       0.97345    1.21161    1.09700   1.00
H2       1.00461    1.25060    1.08113   1.00
C3b      1.00995    1.20756    0.96668   1.00
C5       1.02021    1.22767    0.92890   1.00
H2       1.04604    1.24670    0.93313   1.00
H2       1.02712    1.20655    0.90532   1.00
H2       0.99542    1.24594    0.91897   1.00
C4       1.00015    1.22873    1.00060   1.00
C4       0.99985    1.27127    0.99940   1.00
C3b      0.96520    1.29101    0.98918   1.00
C5       0.92815    1.26937    0.97937   1.00
H2       0.91888    1.25129    1.00456   1.00
H2       0.90384    1.28949    0.97204   1.00
H2       0.93305    1.24995    0.95395   1.00
C3b      1.03422    1.29204    1.00847   1.00
C5       1.07156    1.27152    1.01947   1.00
H2       1.08110    1.25217    0.99534   1.00
H2       1.09559    1.29235    1.02565   1.00
H2       1.06693    1.25350    1.04595   1.00
C3a      0.96529    1.33155    0.98813   1.00
H1       0.93881    1.34700    0.98031   1.00
C3a      1.03355    1.33257    1.00722   1.00
H1       1.05981    1.34881    1.01414   1.00
C2       0.99928    1.35243    0.99710   1.00
C2       0.85243    1.00290    0.99928   1.00
C3a      0.83116    1.03644    1.00898   1.00
H1       0.84631    1.06325    1.01624   1.00
C3a      0.83296    0.96820    0.98987   1.00
H1       0.84949    0.94229    0.98238   1.00
C3b      0.79062    1.03567    1.00937   1.00
C5       0.76856    1.07226    1.01993   1.00
H2       0.75016    1.06697    1.04602   1.00
H2       0.78839    1.09700    1.02655   1.00
H2       0.74940    1.08113    0.99539   1.00
C3b      0.79244    0.96668    0.99005   1.00
C5       0.77233    0.92890    0.97979   1.00
H2       0.75330    0.93313    0.95396   1.00
H2       0.79345    0.90532    0.97288   1.00
H2       0.75406    0.91897    1.00458   1.00
C4       0.77127    1.00060    0.99985   1.00
C4       0.72873    0.99940    1.00015   1.00
C3b      0.70899    0.98918    1.03480   1.00
C5       0.73063    0.97937    1.07185   1.00
H2       0.74871    1.00456    1.08112   1.00
H2       0.71051    0.97204    1.09616   1.00
H2       0.75005    0.95395    1.06695   1.00
C3b      0.70796    1.00847    0.96578   1.00
C5       0.72848    1.01947    0.92844   1.00
H2       0.74783    0.99534    0.91890   1.00
H2       0.70765    1.02565    0.90441   1.00
H2       0.74650    1.04595    0.93307   1.00
C3a      0.66845    0.98813    1.03471   1.00
H1       0.65300    0.98031    1.06119   1.00
C3a      0.66743    1.00722    0.96645   1.00
H1       0.65119    1.01414    0.94019   1.00
C2       0.64757    0.99710    1.00072   1.00
C2       1.14757    1.00290    1.00072   1.00
C3a      1.16884    1.03644    0.99102   1.00
H1       1.15369    1.06325    0.98376   1.00
C3a      1.16704    0.96820    1.01013   1.00
H1       1.15051    0.94229    1.01762   1.00
C3b      1.20938    1.03567    0.99063   1.00
C5       1.23144    1.07226    0.98007   1.00
H2       1.24984    1.06697    0.95398   1.00
H2       1.21161    1.09700    0.97345   1.00
H2       1.25060    1.08113    1.00461   1.00
C3b      1.20756    0.96668    1.00995   1.00
C5       1.22767    0.92890    1.02021   1.00
H2       1.24670    0.93313    1.04604   1.00
H2       1.20655    0.90532    1.02712   1.00
H2       1.24594    0.91897    0.99542   1.00
C4       1.22873    1.00060    1.00015   1.00
C4       1.27127    0.99940    0.99985   1.00
C3b      1.29101    0.98918    0.96520   1.00
C5       1.26937    0.97937    0.92815   1.00
H2       1.25129    1.00456    0.91888   1.00
H2       1.28949    0.97204    0.90384   1.00
H2       1.24995    0.95395    0.93305   1.00
C3b      1.29204    1.00847    1.03422   1.00
C5       1.27152    1.01947    1.07156   1.00
H2       1.25217    0.99534    1.08110   1.00
H2       1.29235    1.02565    1.09559   1.00
H2       1.25350    1.04595    1.06693   1.00
C3a      1.33155    0.98813    0.96529   1.00
H1       1.34700    0.98031    0.93881   1.00
C3a      1.33257    1.00722    1.03355   1.00
H1       1.34881    1.01414    1.05981   1.00
C2       1.35243    0.99710    0.99928   1.00
C2       0.99928    0.85243    1.00290   1.00
C3a      1.00898    0.83116    1.03644   1.00
H1       1.01624    0.84631    1.06325   1.00
C3a      0.98987    0.83296    0.96820   1.00
H1       0.98238    0.84949    0.94229   1.00
C3b      1.00937    0.79062    1.03567   1.00
C5       1.01993    0.76856    1.07226   1.00
H2       1.04602    0.75016    1.06697   1.00
H2       1.02655    0.78839    1.09700   1.00
H2       0.99539    0.74940    1.08113   1.00
C3b      0.99005    0.79244    0.96668   1.00
C5       0.97979    0.77233    0.92890   1.00
H2       0.95396    0.75330    0.93313   1.00
H2       0.97288    0.79345    0.90532   1.00
H2       1.00458    0.75406    0.91897   1.00
C4       0.99985    0.77127    1.00060   1.00
C4       1.00015    0.72873    0.99940   1.00
C3b      1.03480    0.70899    0.98918   1.00
C5       1.07185    0.73063    0.97937   1.00
H2       1.08112    0.74871    1.00456   1.00
H2       1.09616    0.71051    0.97204   1.00
H2       1.06695    0.75005    0.95395   1.00
C3b      0.96578    0.70796    1.00847   1.00
C5       0.92844    0.72848    1.01947   1.00
H2       0.91890    0.74783    0.99534   1.00
H2       0.90441    0.70765    1.02565   1.00
H2       0.93307    0.74650    1.04595   1.00
C3a      1.03471    0.66845    0.98813   1.00
H1       1.06119    0.65300    0.98031   1.00
C3a      0.96645    0.66743    1.00722   1.00
H1       0.94019    0.65119    1.01414   1.00
C2       1.00072    0.64757    0.99710   1.00
C2       1.00290    0.99928    0.85243   1.00
C3a      1.03644    1.00898    0.83116   1.00
H1       1.06325    1.01624    0.84631   1.00
C3a      0.96820    0.98987    0.83296   1.00
H1       0.94229    0.98238    0.84949   1.00
C3b      1.03567    1.00937    0.79062   1.00
C5       1.07226    1.01993    0.76856   1.00
H2       1.06697    1.04602    0.75016   1.00
H2       1.09700    1.02655    0.78839   1.00
H2       1.08113    0.99539    0.74940   1.00
C3b      0.96668    0.99005    0.79244   1.00
C5       0.92890    0.97979    0.77233   1.00
H2       0.93313    0.95396    0.75330   1.00
H2       0.90532    0.97288    0.79345   1.00
H2       0.91897    1.00458    0.75406   1.00
C4       1.00060    0.99985    0.77127   1.00
C4       0.99940    1.00015    0.72873   1.00
C3b      0.98918    1.03480    0.70899   1.00
C5       0.97937    1.07185    0.73063   1.00
H2       1.00456    1.08112    0.74871   1.00
H2       0.97204    1.09616    0.71051   1.00
H2       0.95395    1.06695    0.75005   1.00
C3b      1.00847    0.96578    0.70796   1.00
C5       1.01947    0.92844    0.72848   1.00
H2       0.99534    0.91890    0.74783   1.00
H2       1.02565    0.90441    0.70765   1.00
H2       1.04595    0.93307    0.74650   1.00
C3a      0.98813    1.03471    0.66845   1.00
H1       0.98031    1.06119    0.65300   1.00
C3a      1.00722    0.96645    0.66743   1.00
H1       1.01414    0.94019    0.65119   1.00
C2       0.99710    1.00072    0.64757   1.00
C2       0.50290    0.50072    1.14757   1.00
C3a      0.53644    0.49102    1.16884   1.00
H1       0.56325    0.48376    1.15369   1.00
C3a      0.46820    0.51013    1.16704   1.00
H1       0.44229    0.51762    1.15051   1.00
C3b      0.53567    0.49063    1.20938   1.00
C5       0.57226    0.48007    1.23144   1.00
H2       0.56697    0.45398    1.24984   1.00
H2       0.59700    0.47345    1.21161   1.00
H2       0.58113    0.50461    1.25060   1.00
C3b      0.46668    0.50995    1.20756   1.00
C5       0.42890    0.52021    1.22767   1.00
H2       0.43313    0.54604    1.24670   1.00
H2       0.40532    0.52712    1.20655   1.00
H2       0.41897    0.49542    1.24594   1.00
C4       0.50060    0.50015    1.22873   1.00
C4       0.49940    0.49985    1.27127   1.00
C3b      0.48918    0.46520    1.29101   1.00
C5       0.47937    0.42815    1.26937   1.00
H2       0.50456    0.41888    1.25129   1.00
H2       0.47204    0.40384    1.28949   1.00
H2       0.45395    0.43305    1.24995   1.00
C3b      0.50847    0.53422    1.29204   1.00
C5       0.51947    0.57156    1.27152   1.00
H2       0.49534    0.58110    1.25217   1.00
H2       0.52565    0.59559    1.29235   1.00
H2       0.54595    0.56693    1.25350   1.00
C3a      0.48813    0.46529    1.33155   1.00
H1       0.48031    0.43881    1.34700   1.00
C3a      0.50722    0.53355    1.33257   1.00
H1       0.51414    0.55981    1.34881   1.00
C2       0.49710    0.49928    1.35243   1.00
C2       0.50072    0.64757    1.00290   1.00
C3a      0.49102    0.66884    1.03644   1.00
H1       0.48376    0.65369    1.06325   1.00
C3a      0.51013    0.66704    0.96820   1.00
H1       0.51762    0.65051    0.94229   1.00
C3b      0.49063    0.70938    1.03567   1.00
C5       0.48007    0.73144    1.07226   1.00
H2       0.45398    0.74984    1.06697   1.00
H2       0.47345    0.71161    1.09700   1.00
H2       0.50461    0.75060    1.08113   1.00
C3b      0.50995    0.70756    0.96668   1.00
C5       0.52021    0.72767    0.92890   1.00
H2       0.54604    0.74670    0.93313   1.00
H2       0.52712    0.70655    0.90532   1.00
H2       0.49542    0.74594    0.91897   1.00
C4       0.50015    0.72873    1.00060   1.00
C4       0.49985    0.77127    0.99940   1.00
C3b      0.46520    0.79101    0.98918   1.00
C5       0.42815    0.76937    0.97937   1.00
H2       0.41888    0.75129    1.00456   1.00
H2       0.40384    0.78949    0.97204   1.00
H2       0.43305    0.74995    0.95395   1.00
C3b      0.53422    0.79204    1.00847   1.00
C5       0.57156    0.77152    1.01947   1.00
H2       0.58110    0.75217    0.99534   1.00
H2       0.59559    0.79235    1.02565   1.00
H2       0.56693    0.75350    1.04595   1.00
C3a      0.46529    0.83155    0.98813   1.00
H1       0.43881    0.84700    0.98031   1.00
C3a      0.53355    0.83257    1.00722   1.00
H1       0.55981    0.84881    1.01414   1.00
C2       0.49928    0.85243    0.99710   1.00
C2       0.35243    0.50290    0.99928   1.00
C3a      0.33116    0.53644    1.00898   1.00
H1       0.34631    0.56325    1.01624   1.00
C3a      0.33296    0.46820    0.98987   1.00
H1       0.34949    0.44229    0.98238   1.00
C3b      0.29062    0.53567    1.00937   1.00
C5       0.26856    0.57226    1.01993   1.00
H2       0.25016    0.56697    1.04602   1.00
H2       0.28839    0.59700    1.02655   1.00
H2       0.24940    0.58113    0.99539   1.00
C3b      0.29244    0.46668    0.99005   1.00
C5       0.27233    0.42890    0.97979   1.00
H2       0.25330    0.43313    0.95396   1.00
H2       0.29345    0.40532    0.97288   1.00
H2       0.25406    0.41897    1.00458   1.00
C4       0.27127    0.50060    0.99985   1.00
C4       0.22873    0.49940    1.00015   1.00
C3b      0.20899    0.48918    1.03480   1.00
C5       0.23063    0.47937    1.07185   1.00
H2       0.24871    0.50456    1.08112   1.00
H2       0.21051    0.47204    1.09616   1.00
H2       0.25005    0.45395    1.06695   1.00
C3b      0.20796    0.50847    0.96578   1.00
C5       0.22848    0.51947    0.92844   1.00
H2       0.24783    0.49534    0.91890   1.00
H2       0.20765    0.52565    0.90441   1.00
H2       0.24650    0.54595    0.93307   1.00
C3a      0.16845    0.48813    1.03471   1.00
H1       0.15300    0.48031    1.06119   1.00
C3a      0.16743    0.50722    0.96645   1.00
H1       0.15119    0.51414    0.94019   1.00
C2       0.14757    0.49710    1.00072   1.00
C2       0.64757    0.50290    1.00072   1.00
C3a      0.66884    0.53644    0.99102   1.00
H1       0.65369    0.56325    0.98376   1.00
C3a      0.66704    0.46820    1.01013   1.00
H1       0.65051    0.44229    1.01762   1.00
C3b      0.70938    0.53567    0.99063   1.00
C5       0.73144    0.57226    0.98007   1.00
H2       0.74984    0.56697    0.95398   1.00
H2       0.71161    0.59700    0.97345   1.00
H2       0.75060    0.58113    1.00461   1.00
C3b      0.70756    0.46668    1.00995   1.00
C5       0.72767    0.42890    1.02021   1.00
H2       0.74670    0.43313    1.04604   1.00
H2       0.70655    0.40532    1.02712   1.00
H2       0.74594    0.41897    0.99542   1.00
C4       0.72873    0.50060    1.00015   1.00
C4       0.77127    0.49940    0.99985   1.00
C3b      0.79101    0.48918    0.96520   1.00
C5       0.76937    0.47937    0.92815   1.00
H2       0.75129    0.50456    0.91888   1.00
H2       0.78949    0.47204    0.90384   1.00
H2       0.74995    0.45395    0.93305   1.00
C3b      0.79204    0.50847    1.03422   1.00
C5       0.77152    0.51947    1.07156   1.00
H2       0.75217    0.49534    1.08110   1.00
H2       0.79235    0.52565    1.09559   1.00
H2       0.75350    0.54595    1.06693   1.00
C3a      0.83155    0.48813    0.96529   1.00
H1       0.84700    0.48031    0.93881   1.00
C3a      0.83257    0.50722    1.03355   1.00
H1       0.84881    0.51414    1.05981   1.00
C2       0.85243    0.49710    0.99928   1.00
C2       0.49928    0.35243    1.00290   1.00
C3a      0.50898    0.33116    1.03644   1.00
H1       0.51624    0.34631    1.06325   1.00
C3a      0.48987    0.33296    0.96820   1.00
H1       0.48238    0.34949    0.94229   1.00
C3b      0.50937    0.29062    1.03567   1.00
C5       0.51993    0.26856    1.07226   1.00
H2       0.54602    0.25016    1.06697   1.00
H2       0.52655    0.28839    1.09700   1.00
H2       0.49539    0.24940    1.08113   1.00
C3b      0.49005    0.29244    0.96668   1.00
C5       0.47979    0.27233    0.92890   1.00
H2       0.45396    0.25330    0.93313   1.00
H2       0.47288    0.29345    0.90532   1.00
H2       0.50458    0.25406    0.91897   1.00
C4       0.49985    0.27127    1.00060   1.00
C4       0.50015    0.22873    0.99940   1.00
C3b      0.53480    0.20899    0.98918   1.00
C5       0.57185    0.23063    0.97937   1.00
H2       0.58112    0.24871    1.00456   1.00
H2       0.59616    0.21051    0.97204   1.00
H2       0.56695    0.25005    0.95395   1.00
C3b      0.46578    0.20796    1.00847   1.00
C5       0.42844    0.22848    1.01947   1.00
H2       0.41890    0.24783    0.99534   1.00
H2       0.40441    0.20765    1.02565   1.00
H2       0.43307    0.24650    1.04595   1.00
C3a      0.53471    0.16845    0.98813   1.00
H1       0.56119    0.15300    0.98031   1.00
C3a      0.46645    0.16743    1.00722   1.00
H1       0.44019    0.15119    1.01414   1.00
C2       0.50072    0.14757    0.99710   1.00
C2       0.50290    0.49928    0.85243   1.00
C3a      0.53644    0.50898    0.83116   1.00
H1       0.56325    0.51624    0.84631   1.00
C3a      0.46820    0.48987    0.83296   1.00
H1       0.44229    0.48238    0.84949   1.00
C3b      0.53567    0.50937    0.79062   1.00
C5       0.57226    0.51993    0.76856   1.00
H2       0.56697    0.54602    0.75016   1.00
H2       0.59700    0.52655    0.78839   1.00
H2       0.58113    0.49539    0.74940   1.00
C3b      0.46668    0.49005    0.79244   1.00
C5       0.42890    0.47979    0.77233   1.00
H2       0.43313    0.45396    0.75330   1.00
H2       0.40532    0.47288    0.79345   1.00
H2       0.41897    0.50458    0.75406   1.00
C4       0.50060    0.49985    0.77127   1.00
C4       0.49940    0.50015    0.72873   1.00
C3b      0.48918    0.53480    0.70899   1.00
C5       0.47937    0.57185    0.73063   1.00
H2       0.50456    0.58112    0.74871   1.00
H2       0.47204    0.59616    0.71051   1.00
H2       0.45395    0.56695    0.75005   1.00
C3b      0.50847    0.46578    0.70796   1.00
C5       0.51947    0.42844    0.72848   1.00
H2       0.49534    0.41890    0.74783   1.00
H2       0.52565    0.40441    0.70765   1.00
H2       0.54595    0.43307    0.74650   1.00
C3a      0.48813    0.53471    0.66845   1.00
H1       0.48031    0.56119    0.65300   1.00
C3a      0.50722    0.46645    0.66743   1.00
H1       0.51414    0.44019    0.65119   1.00
C2       0.49710    0.50072    0.64757   1.00
C2       0.50290    1.00072    0.64757   1.00
C3a      0.53644    0.99102    0.66884   1.00
H1       0.56325    0.98376    0.65369   1.00
C3a      0.46820    1.01013    0.66704   1.00
H1       0.44229    1.01762    0.65051   1.00
C3b      0.53567    0.99063    0.70938   1.00
C5       0.57226    0.98007    0.73144   1.00
H2       0.56697    0.95398    0.74984   1.00
H2       0.59700    0.97345    0.71161   1.00
H2       0.58113    1.00461    0.75060   1.00
C3b      0.46668    1.00995    0.70756   1.00
C5       0.42890    1.02021    0.72767   1.00
H2       0.43313    1.04604    0.74670   1.00
H2       0.40532    1.02712    0.70655   1.00
H2       0.41897    0.99542    0.74594   1.00
C4       0.50060    1.00015    0.72873   1.00
C4       0.49940    0.99985    0.77127   1.00
C3b      0.48918    0.96520    0.79101   1.00
C5       0.47937    0.92815    0.76937   1.00
H2       0.50456    0.91888    0.75129   1.00
H2       0.47204    0.90384    0.78949   1.00
H2       0.45395    0.93305    0.74995   1.00
C3b      0.50847    1.03422    0.79204   1.00
C5       0.51947    1.07156    0.77152   1.00
H2       0.49534    1.08110    0.75217   1.00
H2       0.52565    1.09559    0.79235   1.00
H2       0.54595    1.06693    0.75350   1.00
C3a      0.48813    0.96529    0.83155   1.00
H1       0.48031    0.93881    0.84700   1.00
C3a      0.50722    1.03355    0.83257   1.00
H1       0.51414    1.05981    0.84881   1.00
C2       0.49710    0.99928    0.85243   1.00
C2       0.50072    1.14757    0.50290   1.00
C3a      0.49102    1.16884    0.53644   1.00
H1       0.48376    1.15369    0.56325   1.00
C3a      0.51013    1.16704    0.46820   1.00
H1       0.51762    1.15051    0.44229   1.00
C3b      0.49063    1.20938    0.53567   1.00
C5       0.48007    1.23144    0.57226   1.00
H2       0.45398    1.24984    0.56697   1.00
H2       0.47345    1.21161    0.59700   1.00
H2       0.50461    1.25060    0.58113   1.00
C3b      0.50995    1.20756    0.46668   1.00
C5       0.52021    1.22767    0.42890   1.00
H2       0.54604    1.24670    0.43313   1.00
H2       0.52712    1.20655    0.40532   1.00
H2       0.49542    1.24594    0.41897   1.00
C4       0.50015    1.22873    0.50060   1.00
C4       0.49985    1.27127    0.49940   1.00
C3b      0.46520    1.29101    0.48918   1.00
C5       0.42815    1.26937    0.47937   1.00
H2       0.41888    1.25129    0.50456   1.00
H2       0.40384    1.28949    0.47204   1.00
H2       0.43305    1.24995    0.45395   1.00
C3b      0.53422    1.29204    0.50847   1.00
C5       0.57156    1.27152    0.51947   1.00
H2       0.58110    1.25217    0.49534   1.00
H2       0.59559    1.29235    0.52565   1.00
H2       0.56693    1.25350    0.54595   1.00
C3a      0.46529    1.33155    0.48813   1.00
H1       0.43881    1.34700    0.48031   1.00
C3a      0.53355    1.33257    0.50722   1.00
H1       0.55981    1.34881    0.51414   1.00
C2       0.49928    1.35243    0.49710   1.00
C2       0.35243    1.00290    0.49928   1.00
C3a      0.33116    1.03644    0.50898   1.00
H1       0.34631    1.06325    0.51624   1.00
C3a      0.33296    0.96820    0.48987   1.00
H1       0.34949    0.94229    0.48238   1.00
C3b      0.29062    1.03567    0.50937   1.00
C5       0.26856    1.07226    0.51993   1.00
H2       0.25016    1.06697    0.54602   1.00
H2       0.28839    1.09700    0.52655   1.00
H2       0.24940    1.08113    0.49539   1.00
C3b      0.29244    0.96668    0.49005   1.00
C5       0.27233    0.92890    0.47979   1.00
H2       0.25330    0.93313    0.45396   1.00
H2       0.29345    0.90532    0.47288   1.00
H2       0.25406    0.91897    0.50458   1.00
C4       0.27127    1.00060    0.49985   1.00
C4       0.22873    0.99940    0.50015   1.00
C3b      0.20899    0.98918    0.53480   1.00
C5       0.23063    0.97937    0.57185   1.00
H2       0.24871    1.00456    0.58112   1.00
H2       0.21051    0.97204    0.59616   1.00
H2       0.25005    0.95395    0.56695   1.00
C3b      0.20796    1.00847    0.46578   1.00
C5       0.22848    1.01947    0.42844   1.00
H2       0.24783    0.99534    0.41890   1.00
H2       0.20765    1.02565    0.40441   1.00
H2       0.24650    1.04595    0.43307   1.00
C3a      0.16845    0.98813    0.53471   1.00
H1       0.15300    0.98031    0.56119   1.00
C3a      0.16743    1.00722    0.46645   1.00
H1       0.15119    1.01414    0.44019   1.00
C2       0.14757    0.99710    0.50072   1.00
C2       0.64757    1.00290    0.50072   1.00
C3a      0.66884    1.03644    0.49102   1.00
H1       0.65369    1.06325    0.48376   1.00
C3a      0.66704    0.96820    0.51013   1.00
H1       0.65051    0.94229    0.51762   1.00
C3b      0.70938    1.03567    0.49063   1.00
C5       0.73144    1.07226    0.48007   1.00
H2       0.74984    1.06697    0.45398   1.00
H2       0.71161    1.09700    0.47345   1.00
H2       0.75060    1.08113    0.50461   1.00
C3b      0.70756    0.96668    0.50995   1.00
C5       0.72767    0.92890    0.52021   1.00
H2       0.74670    0.93313    0.54604   1.00
H2       0.70655    0.90532    0.52712   1.00
H2       0.74594    0.91897    0.49542   1.00
C4       0.72873    1.00060    0.50015   1.00
C4       0.77127    0.99940    0.49985   1.00
C3b      0.79101    0.98918    0.46520   1.00
C5       0.76937    0.97937    0.42815   1.00
H2       0.75129    1.00456    0.41888   1.00
H2       0.78949    0.97204    0.40384   1.00
H2       0.74995    0.95395    0.43305   1.00
C3b      0.79204    1.00847    0.53422   1.00
C5       0.77152    1.01947    0.57156   1.00
H2       0.75217    0.99534    0.58110   1.00
H2       0.79235    1.02565    0.59559   1.00
H2       0.75350    1.04595    0.56693   1.00
C3a      0.83155    0.98813    0.46529   1.00
H1       0.84700    0.98031    0.43881   1.00
C3a      0.83257    1.00722    0.53355   1.00
H1       0.84881    1.01414    0.55981   1.00
C2       0.85243    0.99710    0.49928   1.00
C2       0.49928    0.85243    0.50290   1.00
C3a      0.50898    0.83116    0.53644   1.00
H1       0.51624    0.84631    0.56325   1.00
C3a      0.48987    0.83296    0.46820   1.00
H1       0.48238    0.84949    0.44229   1.00
C3b      0.50937    0.79062    0.53567   1.00
C5       0.51993    0.76856    0.57226   1.00
H2       0.54602    0.75016    0.56697   1.00
H2       0.52655    0.78839    0.59700   1.00
H2       0.49539    0.74940    0.58113   1.00
C3b      0.49005    0.79244    0.46668   1.00
C5       0.47979    0.77233    0.42890   1.00
H2       0.45396    0.75330    0.43313   1.00
H2       0.47288    0.79345    0.40532   1.00
H2       0.50458    0.75406    0.41897   1.00
C4       0.49985    0.77127    0.50060   1.00
C4       0.50015    0.72873    0.49940   1.00
C3b      0.53480    0.70899    0.48918   1.00
C5       0.57185    0.73063    0.47937   1.00
H2       0.58112    0.74871    0.50456   1.00
H2       0.59616    0.71051    0.47204   1.00
H2       0.56695    0.75005    0.45395   1.00
C3b      0.46578    0.70796    0.50847   1.00
C5       0.42844    0.72848    0.51947   1.00
H2       0.41890    0.74783    0.49534   1.00
H2       0.40441    0.70765    0.52565   1.00
H2       0.43307    0.74650    0.54595   1.00
C3a      0.53471    0.66845    0.48813   1.00
H1       0.56119    0.65300    0.48031   1.00
C3a      0.46645    0.66743    0.50722   1.00
H1       0.44019    0.65119    0.51414   1.00
C2       0.50072    0.64757    0.49710   1.00
C2       0.50290    0.99928    0.35243   1.00
C3a      0.53644    1.00898    0.33116   1.00
H1       0.56325    1.01624    0.34631   1.00
C3a      0.46820    0.98987    0.33296   1.00
H1       0.44229    0.98238    0.34949   1.00
C3b      0.53567    1.00937    0.29062   1.00
C5       0.57226    1.01993    0.26856   1.00
H2       0.56697    1.04602    0.25016   1.00
H2       0.59700    1.02655    0.28839   1.00
H2       0.58113    0.99539    0.24940   1.00
C3b      0.46668    0.99005    0.29244   1.00
C5       0.42890    0.97979    0.27233   1.00
H2       0.43313    0.95396    0.25330   1.00
H2       0.40532    0.97288    0.29345   1.00
H2       0.41897    1.00458    0.25406   1.00
C4       0.50060    0.99985    0.27127   1.00
C4       0.49940    1.00015    0.22873   1.00
C3b      0.48918    1.03480    0.20899   1.00
C5       0.47937    1.07185    0.23063   1.00
H2       0.50456    1.08112    0.24871   1.00
H2       0.47204    1.09616    0.21051   1.00
H2       0.45395    1.06695    0.25005   1.00
C3b      0.50847    0.96578    0.20796   1.00
C5       0.51947    0.92844    0.22848   1.00
H2       0.49534    0.91890    0.24783   1.00
H2       0.52565    0.90441    0.20765   1.00
H2       0.54595    0.93307    0.24650   1.00
C3a      0.48813    1.03471    0.16845   1.00
H1       0.48031    1.06119    0.15300   1.00
C3a      0.50722    0.96645    0.16743   1.00
H1       0.51414    0.94019    0.15119   1.00
C2       0.49710    1.00072    0.14757   1.00
C2       1.00290    0.50072    0.64757   1.00
C3a      1.03644    0.49102    0.66884   1.00
H1       1.06325    0.48376    0.65369   1.00
C3a      0.96820    0.51013    0.66704   1.00
H1       0.94229    0.51762    0.65051   1.00
C3b      1.03567    0.49063    0.70938   1.00
C5       1.07226    0.48007    0.73144   1.00
H2       1.06697    0.45398    0.74984   1.00
H2       1.09700    0.47345    0.71161   1.00
H2       1.08113    0.50461    0.75060   1.00
C3b      0.96668    0.50995    0.70756   1.00
C5       0.92890    0.52021    0.72767   1.00
H2       0.93313    0.54604    0.74670   1.00
H2       0.90532    0.52712    0.70655   1.00
H2       0.91897    0.49542    0.74594   1.00
C4       1.00060    0.50015    0.72873   1.00
C4       0.99940    0.49985    0.77127   1.00
C3b      0.98918    0.46520    0.79101   1.00
C5       0.97937    0.42815    0.76937   1.00
H2       1.00456    0.41888    0.75129   1.00
H2       0.97204    0.40384    0.78949   1.00
H2       0.95395    0.43305    0.74995   1.00
C3b      1.00847    0.53422    0.79204   1.00
C5       1.01947    0.57156    0.77152   1.00
H2       0.99534    0.58110    0.75217   1.00
H2       1.02565    0.59559    0.79235   1.00
H2       1.04595    0.56693    0.75350   1.00
C3a      0.98813    0.46529    0.83155   1.00
H1       0.98031    0.43881    0.84700   1.00
C3a      1.00722    0.53355    0.83257   1.00
H1       1.01414    0.55981    0.84881   1.00
C2       0.99710    0.49928    0.85243   1.00
C2       1.00072    0.64757    0.50290   1.00
C3a      0.99102    0.66884    0.53644   1.00
H1       0.98376    0.65369    0.56325   1.00
C3a      1.01013    0.66704    0.46820   1.00
H1       1.01762    0.65051    0.44229   1.00
C3b      0.99063    0.70938    0.53567   1.00
C5       0.98007    0.73144    0.57226   1.00
H2       0.95398    0.74984    0.56697   1.00
H2       0.97345    0.71161    0.59700   1.00
H2       1.00461    0.75060    0.58113   1.00
C3b      1.00995    0.70756    0.46668   1.00
C5       1.02021    0.72767    0.42890   1.00
H2       1.04604    0.74670    0.43313   1.00
H2       1.02712    0.70655    0.40532   1.00
H2       0.99542    0.74594    0.41897   1.00
C4       1.00015    0.72873    0.50060   1.00
C4       0.99985    0.77127    0.49940   1.00
C3b      0.96520    0.79101    0.48918   1.00
C5       0.92815    0.76937    0.47937   1.00
H2       0.91888    0.75129    0.50456   1.00
H2       0.90384    0.78949    0.47204   1.00
H2       0.93305    0.74995    0.45395   1.00
C3b      1.03422    0.79204    0.50847   1.00
C5       1.07156    0.77152    0.51947   1.00
H2       1.08110    0.75217    0.49534   1.00
H2       1.09559    0.79235    0.52565   1.00
H2       1.06693    0.75350    0.54595   1.00
C3a      0.96529    0.83155    0.48813   1.00
H1       0.93881    0.84700    0.48031   1.00
C3a      1.03355    0.83257    0.50722   1.00
H1       1.05981    0.84881    0.51414   1.00
C2       0.99928    0.85243    0.49710   1.00
C2       0.85243    0.50290    0.49928   1.00
C3a      0.83116    0.53644    0.50898   1.00
H1       0.84631    0.56325    0.51624   1.00
C3a      0.83296    0.46820    0.48987   1.00
H1       0.84949    0.44229    0.48238   1.00
C3b      0.79062    0.53567    0.50937   1.00
C5       0.76856    0.57226    0.51993   1.00
H2       0.75016    0.56697    0.54602   1.00
H2       0.78839    0.59700    0.52655   1.00
H2       0.74940    0.58113    0.49539   1.00
C3b      0.79244    0.46668    0.49005   1.00
C5       0.77233    0.42890    0.47979   1.00
H2       0.75330    0.43313    0.45396   1.00
H2       0.79345    0.40532    0.47288   1.00
H2       0.75406    0.41897    0.50458   1.00
C4       0.77127    0.50060    0.49985   1.00
C4       0.72873    0.49940    0.50015   1.00
C3b      0.70899    0.48918    0.53480   1.00
C5       0.73063    0.47937    0.57185   1.00
H2       0.74871    0.50456    0.58112   1.00
H2       0.71051    0.47204    0.59616   1.00
H2       0.75005    0.45395    0.56695   1.00
C3b      0.70796    0.50847    0.46578   1.00
C5       0.72848    0.51947    0.42844   1.00
H2       0.74783    0.49534    0.41890   1.00
H2       0.70765    0.52565    0.40441   1.00
H2       0.74650    0.54595    0.43307   1.00
C3a      0.66845    0.48813    0.53471   1.00
H1       0.65300    0.48031    0.56119   1.00
C3a      0.66743    0.50722    0.46645   1.00
H1       0.65119    0.51414    0.44019   1.00
C2       0.64757    0.49710    0.50072   1.00
C2       1.14757    0.50290    0.50072   1.00
C3a      1.16884    0.53644    0.49102   1.00
H1       1.15369    0.56325    0.48376   1.00
C3a      1.16704    0.46820    0.51013   1.00
H1       1.15051    0.44229    0.51762   1.00
C3b      1.20938    0.53567    0.49063   1.00
C5       1.23144    0.57226    0.48007   1.00
H2       1.24984    0.56697    0.45398   1.00
H2       1.21161    0.59700    0.47345   1.00
H2       1.25060    0.58113    0.50461   1.00
C3b      1.20756    0.46668    0.50995   1.00
C5       1.22767    0.42890    0.52021   1.00
H2       1.24670    0.43313    0.54604   1.00
H2       1.20655    0.40532    0.52712   1.00
H2       1.24594    0.41897    0.49542   1.00
C4       1.22873    0.50060    0.50015   1.00
C4       1.27127    0.49940    0.49985   1.00
C3b      1.29101    0.48918    0.46520   1.00
C5       1.26937    0.47937    0.42815   1.00
H2       1.25129    0.50456    0.41888   1.00
H2       1.28949    0.47204    0.40384   1.00
H2       1.24995    0.45395    0.43305   1.00
C3b      1.29204    0.50847    0.53422   1.00
C5       1.27152    0.51947    0.57156   1.00
H2       1.25217    0.49534    0.58110   1.00
H2       1.29235    0.52565    0.59559   1.00
H2       1.25350    0.54595    0.56693   1.00
C3a      1.33155    0.48813    0.46529   1.00
H1       1.34700    0.48031    0.43881   1.00
C3a      1.33257    0.50722    0.53355   1.00
H1       1.34881    0.51414    0.55981   1.00
C2       1.35243    0.49710    0.49928   1.00
C2       0.99928    0.35243    0.50290   1.00
C3a      1.00898    0.33116    0.53644   1.00
H1       1.01624    0.34631    0.56325   1.00
C3a      0.98987    0.33296    0.46820   1.00
H1       0.98238    0.34949    0.44229   1.00
C3b      1.00937    0.29062    0.53567   1.00
C5       1.01993    0.26856    0.57226   1.00
H2       1.04602    0.25016    0.56697   1.00
H2       1.02655    0.28839    0.59700   1.00
H2       0.99539    0.24940    0.58113   1.00
C3b      0.99005    0.29244    0.46668   1.00
C5       0.97979    0.27233    0.42890   1.00
H2       0.95396    0.25330    0.43313   1.00
H2       0.97288    0.29345    0.40532   1.00
H2       1.00458    0.25406    0.41897   1.00
C4       0.99985    0.27127    0.50060   1.00
C4       1.00015    0.22873    0.49940   1.00
C3b      1.03480    0.20899    0.48918   1.00
C5       1.07185    0.23063    0.47937   1.00
H2       1.08112    0.24871    0.50456   1.00
H2       1.09616    0.21051    0.47204   1.00
H2       1.06695    0.25005    0.45395   1.00
C3b      0.96578    0.20796    0.50847   1.00
C5       0.92844    0.22848    0.51947   1.00
H2       0.91890    0.24783    0.49534   1.00
H2       0.90441    0.20765    0.52565   1.00
H2       0.93307    0.24650    0.54595   1.00
C3a      1.03471    0.16845    0.48813   1.00
H1       1.06119    0.15300    0.48031   1.00
C3a      0.96645    0.16743    0.50722   1.00
H1       0.94019    0.15119    0.51414   1.00
C2       1.00072    0.14757    0.49710   1.00
C2       1.00290    0.49928    0.35243   1.00
C3a      1.03644    0.50898    0.33116   1.00
H1       1.06325    0.51624    0.34631   1.00
C3a      0.96820    0.48987    0.33296   1.00
H1       0.94229    0.48238    0.34949   1.00
C3b      1.03567    0.50937    0.29062   1.00
C5       1.07226    0.51993    0.26856   1.00
H2       1.06697    0.54602    0.25016   1.00
H2       1.09700    0.52655    0.28839   1.00
H2       1.08113    0.49539    0.24940   1.00
C3b      0.96668    0.49005    0.29244   1.00
C5       0.92890    0.47979    0.27233   1.00
H2       0.93313    0.45396    0.25330   1.00
H2       0.90532    0.47288    0.29345   1.00
H2       0.91897    0.50458    0.25406   1.00
C4       1.00060    0.49985    0.27127   1.00
C4       0.99940    0.50015    0.22873   1.00
C3b      0.98918    0.53480    0.20899   1.00
C5       0.97937    0.57185    0.23063   1.00
H2       1.00456    0.58112    0.24871   1.00
H2       0.97204    0.59616    0.21051   1.00
H2       0.95395    0.56695    0.25005   1.00
C3b      1.00847    0.46578    0.20796   1.00
C5       1.01947    0.42844    0.22848   1.00
H2       0.99534    0.41890    0.24783   1.00
H2       1.02565    0.40441    0.20765   1.00
H2       1.04595    0.43307    0.24650   1.00
C3a      0.98813    0.53471    0.16845   1.00
H1       0.98031    0.56119    0.15300   1.00
C3a      1.00722    0.46645    0.16743   1.00
H1       1.01414    0.44019    0.15119   1.00
C2       0.99710    0.50072    0.14757   1.00
