data_IRMOF10_SG202_interpen_Ligand8lp_label_l.

_audit_creation_method             'generated by an auxiliary program of Tobunporous'

_symmetry_space_group_name_H-M     'P 1'
_symmetry_Int_Tables_number        1
_symmetry_cell_setting             triclinic

_cell_length_a                    34.2800
_cell_length_b                    34.2800
_cell_length_c                    34.2800
_cell_angle_alpha                 90.0000
_cell_angle_beta                  90.0000
_cell_angle_gamma                 90.0000

loop_
_atom_site_label
_atom_site_fract_x
_atom_site_fract_y
_atom_site_fract_z
_atom_site_occupancy
O1       0.75000    0.75000    0.75000   1.00
Zn1      0.71720    0.78280    0.78280   1.00
Zn1      0.78280    0.71720    0.78280   1.00
Zn1      0.78280    0.78280    0.71720   1.00
Zn1      0.71720    0.71720    0.71720   1.00
O2       0.72650    0.77350    0.83820   1.00
O2       0.72650    0.83820    0.77350   1.00
O2       0.66180    0.77350    0.77350   1.00
O2       0.77350    0.72650    0.83820   1.00
O2       0.83820    0.72650    0.77350   1.00
O2       0.77350    0.66180    0.77350   1.00
O2       0.77350    0.83820    0.72650   1.00
O2       0.83820    0.77350    0.72650   1.00
O2       0.77350    0.77350    0.66180   1.00
O2       0.66180    0.72650    0.72650   1.00
O2       0.72650    0.66180    0.72650   1.00
O2       0.72650    0.72650    0.66180   1.00
C1       0.75000    0.75000    0.85520   1.00
C1       0.75000    0.85520    0.75000   1.00
C1       0.64480    0.75000    0.75000   1.00
C1       0.85520    0.75000    0.75000   1.00
C1       0.75000    0.64480    0.75000   1.00
C1       0.75000    0.75000    0.64480   1.00
O1       0.25000    0.25000    0.75000   1.00
Zn1      0.21720    0.28280    0.78280   1.00
Zn1      0.28280    0.21720    0.78280   1.00
Zn1      0.28280    0.28280    0.71720   1.00
Zn1      0.21720    0.21720    0.71720   1.00
O2       0.22650    0.27350    0.83820   1.00
O2       0.22650    0.33820    0.77350   1.00
O2       0.16180    0.27350    0.77350   1.00
O2       0.27350    0.22650    0.83820   1.00
O2       0.33820    0.22650    0.77350   1.00
O2       0.27350    0.16180    0.77350   1.00
O2       0.27350    0.33820    0.72650   1.00
O2       0.33820    0.27350    0.72650   1.00
O2       0.27350    0.27350    0.66180   1.00
O2       0.16180    0.22650    0.72650   1.00
O2       0.22650    0.16180    0.72650   1.00
O2       0.22650    0.22650    0.66180   1.00
C1       0.25000    0.25000    0.85520   1.00
C1       0.25000    0.35520    0.75000   1.00
C1       0.14480    0.25000    0.75000   1.00
C1       0.35520    0.25000    0.75000   1.00
C1       0.25000    0.14480    0.75000   1.00
C1       0.25000    0.25000    0.64480   1.00
O1       0.25000    0.75000    0.25000   1.00
Zn1      0.21720    0.78280    0.28280   1.00
Zn1      0.28280    0.71720    0.28280   1.00
Zn1      0.28280    0.78280    0.21720   1.00
Zn1      0.21720    0.71720    0.21720   1.00
O2       0.22650    0.77350    0.33820   1.00
O2       0.22650    0.83820    0.27350   1.00
O2       0.16180    0.77350    0.27350   1.00
O2       0.27350    0.72650    0.33820   1.00
O2       0.33820    0.72650    0.27350   1.00
O2       0.27350    0.66180    0.27350   1.00
O2       0.27350    0.83820    0.22650   1.00
O2       0.33820    0.77350    0.22650   1.00
O2       0.27350    0.77350    0.16180   1.00
O2       0.16180    0.72650    0.22650   1.00
O2       0.22650    0.66180    0.22650   1.00
O2       0.22650    0.72650    0.16180   1.00
C1       0.25000    0.75000    0.35520   1.00
C1       0.25000    0.85520    0.25000   1.00
C1       0.14480    0.75000    0.25000   1.00
C1       0.35520    0.75000    0.25000   1.00
C1       0.25000    0.64480    0.25000   1.00
C1       0.25000    0.75000    0.14480   1.00
O1       0.75000    0.25000    0.25000   1.00
Zn1      0.71720    0.28280    0.28280   1.00
Zn1      0.78280    0.21720    0.28280   1.00
Zn1      0.78280    0.28280    0.21720   1.00
Zn1      0.71720    0.21720    0.21720   1.00
O2       0.72650    0.27350    0.33820   1.00
O2       0.72650    0.33820    0.27350   1.00
O2       0.66180    0.27350    0.27350   1.00
O2       0.77350    0.22650    0.33820   1.00
O2       0.83820    0.22650    0.27350   1.00
O2       0.77350    0.16180    0.27350   1.00
O2       0.77350    0.33820    0.22650   1.00
O2       0.83820    0.27350    0.22650   1.00
O2       0.77350    0.27350    0.16180   1.00
O2       0.66180    0.22650    0.22650   1.00
O2       0.72650    0.16180    0.22650   1.00
O2       0.72650    0.22650    0.16180   1.00
C1       0.75000    0.25000    0.35520   1.00
C1       0.75000    0.35520    0.25000   1.00
C1       0.64480    0.25000    0.25000   1.00
C1       0.85520    0.25000    0.25000   1.00
C1       0.75000    0.14480    0.25000   1.00
C1       0.75000    0.25000    0.14480   1.00
O1       0.25000    0.25000    0.25000   1.00
Zn1      0.28280    0.21720    0.21720   1.00
Zn1      0.21720    0.28280    0.21720   1.00
Zn1      0.21720    0.21720    0.28280   1.00
Zn1      0.28280    0.28280    0.28280   1.00
O2       0.27350    0.22650    0.16180   1.00
O2       0.27350    0.16180    0.22650   1.00
O2       0.33820    0.22650    0.22650   1.00
O2       0.22650    0.27350    0.16180   1.00
O2       0.16180    0.27350    0.22650   1.00
O2       0.22650    0.33820    0.22650   1.00
O2       0.22650    0.16180    0.27350   1.00
O2       0.16180    0.22650    0.27350   1.00
O2       0.22650    0.22650    0.33820   1.00
O2       0.33820    0.27350    0.27350   1.00
O2       0.27350    0.33820    0.27350   1.00
O2       0.27350    0.27350    0.33820   1.00
C1       0.25000    0.25000    0.14480   1.00
C1       0.25000    0.14480    0.25000   1.00
C1       0.35520    0.25000    0.25000   1.00
C1       0.14480    0.25000    0.25000   1.00
C1       0.25000    0.35520    0.25000   1.00
C1       0.25000    0.25000    0.35520   1.00
O1       0.75000    0.75000    0.25000   1.00
Zn1      0.78280    0.71720    0.21720   1.00
Zn1      0.71720    0.78280    0.21720   1.00
Zn1      0.71720    0.71720    0.28280   1.00
Zn1      0.78280    0.78280    0.28280   1.00
O2       0.77350    0.72650    0.16180   1.00
O2       0.77350    0.66180    0.22650   1.00
O2       0.83820    0.72650    0.22650   1.00
O2       0.72650    0.77350    0.16180   1.00
O2       0.66180    0.77350    0.22650   1.00
O2       0.72650    0.83820    0.22650   1.00
O2       0.72650    0.66180    0.27350   1.00
O2       0.66180    0.72650    0.27350   1.00
O2       0.72650    0.72650    0.33820   1.00
O2       0.83820    0.77350    0.27350   1.00
O2       0.77350    0.83820    0.27350   1.00
O2       0.77350    0.77350    0.33820   1.00
C1       0.75000    0.75000    0.14480   1.00
C1       0.75000    0.64480    0.25000   1.00
C1       0.85520    0.75000    0.25000   1.00
C1       0.64480    0.75000    0.25000   1.00
C1       0.75000    0.85520    0.25000   1.00
C1       0.75000    0.75000    0.35520   1.00
O1       0.75000    0.25000    0.75000   1.00
Zn1      0.78280    0.21720    0.71720   1.00
Zn1      0.71720    0.28280    0.71720   1.00
Zn1      0.71720    0.21720    0.78280   1.00
Zn1      0.78280    0.28280    0.78280   1.00
O2       0.77350    0.22650    0.66180   1.00
O2       0.77350    0.16180    0.72650   1.00
O2       0.83820    0.22650    0.72650   1.00
O2       0.72650    0.27350    0.66180   1.00
O2       0.66180    0.27350    0.72650   1.00
O2       0.72650    0.33820    0.72650   1.00
O2       0.72650    0.16180    0.77350   1.00
O2       0.66180    0.22650    0.77350   1.00
O2       0.72650    0.22650    0.83820   1.00
O2       0.83820    0.27350    0.77350   1.00
O2       0.77350    0.33820    0.77350   1.00
O2       0.77350    0.27350    0.83820   1.00
C1       0.75000    0.25000    0.64480   1.00
C1       0.75000    0.14480    0.75000   1.00
C1       0.85520    0.25000    0.75000   1.00
C1       0.64480    0.25000    0.75000   1.00
C1       0.75000    0.35520    0.75000   1.00
C1       0.75000    0.25000    0.85520   1.00
O1       0.25000    0.75000    0.75000   1.00
Zn1      0.28280    0.71720    0.71720   1.00
Zn1      0.21720    0.78280    0.71720   1.00
Zn1      0.21720    0.71720    0.78280   1.00
Zn1      0.28280    0.78280    0.78280   1.00
O2       0.27350    0.72650    0.66180   1.00
O2       0.27350    0.66180    0.72650   1.00
O2       0.33820    0.72650    0.72650   1.00
O2       0.22650    0.77350    0.66180   1.00
O2       0.16180    0.77350    0.72650   1.00
O2       0.22650    0.83820    0.72650   1.00
O2       0.22650    0.66180    0.77350   1.00
O2       0.16180    0.72650    0.77350   1.00
O2       0.22650    0.72650    0.83820   1.00
O2       0.33820    0.77350    0.77350   1.00
O2       0.27350    0.83820    0.77350   1.00
O2       0.27350    0.77350    0.83820   1.00
C1       0.25000    0.75000    0.64480   1.00
C1       0.25000    0.64480    0.75000   1.00
C1       0.35520    0.75000    0.75000   1.00
C1       0.14480    0.75000    0.75000   1.00
C1       0.25000    0.85520    0.75000   1.00
C1       0.25000    0.75000    0.85520   1.00
O1       1.00000    1.00000    1.00000   1.00
Zn1      0.96720    1.03280    1.03280   1.00
Zn1      1.03280    0.96720    1.03280   1.00
Zn1      1.03280    1.03280    0.96720   1.00
Zn1      0.96720    0.96720    0.96720   1.00
O2       0.97650    1.02350    1.08820   1.00
O2       0.97650    1.08820    1.02350   1.00
O2       0.91180    1.02350    1.02350   1.00
O2       1.02350    0.97650    1.08820   1.00
O2       1.08820    0.97650    1.02350   1.00
O2       1.02350    0.91180    1.02350   1.00
O2       1.02350    1.08820    0.97650   1.00
O2       1.08820    1.02350    0.97650   1.00
O2       1.02350    1.02350    0.91180   1.00
O2       0.91180    0.97650    0.97650   1.00
O2       0.97650    0.91180    0.97650   1.00
O2       0.97650    0.97650    0.91180   1.00
C1       1.00000    1.00000    1.10520   1.00
C1       1.00000    1.10520    1.00000   1.00
C1       0.89480    1.00000    1.00000   1.00
C1       1.10520    1.00000    1.00000   1.00
C1       1.00000    0.89480    1.00000   1.00
C1       1.00000    1.00000    0.89480   1.00
O1       0.50000    0.50000    1.00000   1.00
Zn1      0.46720    0.53280    1.03280   1.00
Zn1      0.53280    0.46720    1.03280   1.00
Zn1      0.53280    0.53280    0.96720   1.00
Zn1      0.46720    0.46720    0.96720   1.00
O2       0.47650    0.52350    1.08820   1.00
O2       0.47650    0.58820    1.02350   1.00
O2       0.41180    0.52350    1.02350   1.00
O2       0.52350    0.47650    1.08820   1.00
O2       0.58820    0.47650    1.02350   1.00
O2       0.52350    0.41180    1.02350   1.00
O2       0.52350    0.58820    0.97650   1.00
O2       0.58820    0.52350    0.97650   1.00
O2       0.52350    0.52350    0.91180   1.00
O2       0.41180    0.47650    0.97650   1.00
O2       0.47650    0.41180    0.97650   1.00
O2       0.47650    0.47650    0.91180   1.00
C1       0.50000    0.50000    1.10520   1.00
C1       0.50000    0.60520    1.00000   1.00
C1       0.39480    0.50000    1.00000   1.00
C1       0.60520    0.50000    1.00000   1.00
C1       0.50000    0.39480    1.00000   1.00
C1       0.50000    0.50000    0.89480   1.00
O1       0.50000    1.00000    0.50000   1.00
Zn1      0.46720    1.03280    0.53280   1.00
Zn1      0.53280    0.96720    0.53280   1.00
Zn1      0.53280    1.03280    0.46720   1.00
Zn1      0.46720    0.96720    0.46720   1.00
O2       0.47650    1.02350    0.58820   1.00
O2       0.47650    1.08820    0.52350   1.00
O2       0.41180    1.02350    0.52350   1.00
O2       0.52350    0.97650    0.58820   1.00
O2       0.58820    0.97650    0.52350   1.00
O2       0.52350    0.91180    0.52350   1.00
O2       0.52350    1.08820    0.47650   1.00
O2       0.58820    1.02350    0.47650   1.00
O2       0.52350    1.02350    0.41180   1.00
O2       0.41180    0.97650    0.47650   1.00
O2       0.47650    0.91180    0.47650   1.00
O2       0.47650    0.97650    0.41180   1.00
C1       0.50000    1.00000    0.60520   1.00
C1       0.50000    1.10520    0.50000   1.00
C1       0.39480    1.00000    0.50000   1.00
C1       0.60520    1.00000    0.50000   1.00
C1       0.50000    0.89480    0.50000   1.00
C1       0.50000    1.00000    0.39480   1.00
O1       1.00000    0.50000    0.50000   1.00
Zn1      0.96720    0.53280    0.53280   1.00
Zn1      1.03280    0.46720    0.53280   1.00
Zn1      1.03280    0.53280    0.46720   1.00
Zn1      0.96720    0.46720    0.46720   1.00
O2       0.97650    0.52350    0.58820   1.00
O2       0.97650    0.58820    0.52350   1.00
O2       0.91180    0.52350    0.52350   1.00
O2       1.02350    0.47650    0.58820   1.00
O2       1.08820    0.47650    0.52350   1.00
O2       1.02350    0.41180    0.52350   1.00
O2       1.02350    0.58820    0.47650   1.00
O2       1.08820    0.52350    0.47650   1.00
O2       1.02350    0.52350    0.41180   1.00
O2       0.91180    0.47650    0.47650   1.00
O2       0.97650    0.41180    0.47650   1.00
O2       0.97650    0.47650    0.41180   1.00
C1       1.00000    0.50000    0.60520   1.00
C1       1.00000    0.60520    0.50000   1.00
C1       0.89480    0.50000    0.50000   1.00
C1       1.10520    0.50000    0.50000   1.00
C1       1.00000    0.39480    0.50000   1.00
C1       1.00000    0.50000    0.39480   1.00
O1       0.50000    0.50000    0.50000   1.00
Zn1      0.53280    0.46720    0.46720   1.00
Zn1      0.46720    0.53280    0.46720   1.00
Zn1      0.46720    0.46720    0.53280   1.00
Zn1      0.53280    0.53280    0.53280   1.00
O2       0.52350    0.47650    0.41180   1.00
O2       0.52350    0.41180    0.47650   1.00
O2       0.58820    0.47650    0.47650   1.00
O2       0.47650    0.52350    0.41180   1.00
O2       0.41180    0.52350    0.47650   1.00
O2       0.47650    0.58820    0.47650   1.00
O2       0.47650    0.41180    0.52350   1.00
O2       0.41180    0.47650    0.52350   1.00
O2       0.47650    0.47650    0.58820   1.00
O2       0.58820    0.52350    0.52350   1.00
O2       0.52350    0.58820    0.52350   1.00
O2       0.52350    0.52350    0.58820   1.00
C1       0.50000    0.50000    0.39480   1.00
C1       0.50000    0.39480    0.50000   1.00
C1       0.60520    0.50000    0.50000   1.00
C1       0.39480    0.50000    0.50000   1.00
C1       0.50000    0.60520    0.50000   1.00
C1       0.50000    0.50000    0.60520   1.00
O1       1.00000    1.00000    0.50000   1.00
Zn1      1.03280    0.96720    0.46720   1.00
Zn1      0.96720    1.03280    0.46720   1.00
Zn1      0.96720    0.96720    0.53280   1.00
Zn1      1.03280    1.03280    0.53280   1.00
O2       1.02350    0.97650    0.41180   1.00
O2       1.02350    0.91180    0.47650   1.00
O2       1.08820    0.97650    0.47650   1.00
O2       0.97650    1.02350    0.41180   1.00
O2       0.91180    1.02350    0.47650   1.00
O2       0.97650    1.08820    0.47650   1.00
O2       0.97650    0.91180    0.52350   1.00
O2       0.91180    0.97650    0.52350   1.00
O2       0.97650    0.97650    0.58820   1.00
O2       1.08820    1.02350    0.52350   1.00
O2       1.02350    1.08820    0.52350   1.00
O2       1.02350    1.02350    0.58820   1.00
C1       1.00000    1.00000    0.39480   1.00
C1       1.00000    0.89480    0.50000   1.00
C1       1.10520    1.00000    0.50000   1.00
C1       0.89480    1.00000    0.50000   1.00
C1       1.00000    1.10520    0.50000   1.00
C1       1.00000    1.00000    0.60520   1.00
O1       1.00000    0.50000    1.00000   1.00
Zn1      1.03280    0.46720    0.96720   1.00
Zn1      0.96720    0.53280    0.96720   1.00
Zn1      0.96720    0.46720    1.03280   1.00
Zn1      1.03280    0.53280    1.03280   1.00
O2       1.02350    0.47650    0.91180   1.00
O2       1.02350    0.41180    0.97650   1.00
O2       1.08820    0.47650    0.97650   1.00
O2       0.97650    0.52350    0.91180   1.00
O2       0.91180    0.52350    0.97650   1.00
O2       0.97650    0.58820    0.97650   1.00
O2       0.97650    0.41180    1.02350   1.00
O2       0.91180    0.47650    1.02350   1.00
O2       0.97650    0.47650    1.08820   1.00
O2       1.08820    0.52350    1.02350   1.00
O2       1.02350    0.58820    1.02350   1.00
O2       1.02350    0.52350    1.08820   1.00
C1       1.00000    0.50000    0.89480   1.00
C1       1.00000    0.39480    1.00000   1.00
C1       1.10520    0.50000    1.00000   1.00
C1       0.89480    0.50000    1.00000   1.00
C1       1.00000    0.60520    1.00000   1.00
C1       1.00000    0.50000    1.10520   1.00
O1       0.50000    1.00000    1.00000   1.00
Zn1      0.53280    0.96720    0.96720   1.00
Zn1      0.46720    1.03280    0.96720   1.00
Zn1      0.46720    0.96720    1.03280   1.00
Zn1      0.53280    1.03280    1.03280   1.00
O2       0.52350    0.97650    0.91180   1.00
O2       0.52350    0.91180    0.97650   1.00
O2       0.58820    0.97650    0.97650   1.00
O2       0.47650    1.02350    0.91180   1.00
O2       0.41180    1.02350    0.97650   1.00
O2       0.47650    1.08820    0.97650   1.00
O2       0.47650    0.91180    1.02350   1.00
O2       0.41180    0.97650    1.02350   1.00
O2       0.47650    0.97650    1.08820   1.00
O2       0.58820    1.02350    1.02350   1.00
O2       0.52350    1.08820    1.02350   1.00
O2       0.52350    1.02350    1.08820   1.00
C1       0.50000    1.00000    0.89480   1.00
C1       0.50000    0.89480    1.00000   1.00
C1       0.60520    1.00000    1.00000   1.00
C1       0.39480    1.00000    1.00000   1.00
C1       0.50000    1.10520    1.00000   1.00
C1       0.50000    1.00000    1.10520   1.00
C4       0.75005    0.74991    0.97915   1.00
C4       0.74995    0.75009    1.02085   1.00
C3       0.78381    0.74154    0.95708   1.00
C3       0.73452    0.71845    1.04225   1.00
C3       0.71557    0.75827    0.95816   1.00
C3a      0.76587    0.78187    1.04263   1.00
C2       0.74865    0.75067    0.89483   1.00
C2       0.75115    0.74909    1.10517   1.00
C3       0.78306    0.74195    0.91566   1.00
C3       0.73515    0.71801    1.08359   1.00
C3       0.71494    0.75881    0.91680   1.00
C3       0.76633    0.78080    1.08415   1.00
H1       0.81085    0.73471    0.97192   1.00
H1       0.72215    0.69378    1.02685   1.00
H1       0.80952    0.73546    0.89968   1.00
H1       0.72312    0.69316    1.09895   1.00
H1       0.68806    0.76589    0.90179   1.00
H1       0.77833    0.80507    1.10043   1.00
C5       0.78186    0.81774    1.02239   1.00
H1       0.68920    0.76546    0.97401   1.00
H2       0.79648    0.83751    1.04354   1.00
H2       0.80454    0.80878    1.00103   1.00
N1       0.75056    0.83931    1.00292   1.00
C6       0.71875    0.85468    1.02012   1.00
C6       0.74852    0.84773    0.96460   1.00
C6       0.69590    0.87284    0.99243   1.00
C6       0.71483    0.86840    0.95711   1.00
H3       0.71231    0.85265    1.05099   1.00
H3       0.76995    0.83899    0.94309   1.00
H3       0.66852    0.88769    0.99741   1.00
H3       0.70514    0.87901    0.92903   1.00
C4       0.74991    0.97915    0.75005   1.00
C4       0.75009    1.02085    0.74995   1.00
C3       0.74154    0.95708    0.78381   1.00
C3       0.71845    1.04225    0.73452   1.00
C3       0.75827    0.95816    0.71557   1.00
C3a      0.78187    1.04263    0.76587   1.00
C2       0.75067    0.89483    0.74865   1.00
C2       0.74909    1.10517    0.75115   1.00
C3       0.74195    0.91566    0.78306   1.00
C3       0.71801    1.08359    0.73515   1.00
C3       0.75881    0.91680    0.71494   1.00
C3       0.78080    1.08415    0.76633   1.00
H1       0.73471    0.97192    0.81085   1.00
H1       0.69378    1.02685    0.72215   1.00
H1       0.73546    0.89968    0.80952   1.00
H1       0.69316    1.09895    0.72312   1.00
H1       0.76589    0.90179    0.68806   1.00
H1       0.80507    1.10043    0.77833   1.00
C5       0.81774    1.02239    0.78186   1.00
H1       0.76546    0.97401    0.68920   1.00
H2       0.83751    1.04354    0.79648   1.00
H2       0.80878    1.00103    0.80454   1.00
N1       0.83931    1.00292    0.75056   1.00
C6       0.85468    1.02012    0.71875   1.00
C6       0.84773    0.96460    0.74852   1.00
C6       0.87284    0.99243    0.69590   1.00
C6       0.86840    0.95711    0.71483   1.00
H3       0.85265    1.05099    0.71231   1.00
H3       0.83899    0.94309    0.76995   1.00
H3       0.88769    0.99741    0.66852   1.00
H3       0.87901    0.92903    0.70514   1.00
C4       0.52085    0.75005    0.75009   1.00
C4       0.47915    0.74995    0.74991   1.00
C3       0.54292    0.78381    0.75846   1.00
C3       0.45775    0.73452    0.78155   1.00
C3       0.54184    0.71557    0.74173   1.00
C3a      0.45737    0.76587    0.71813   1.00
C2       0.60517    0.74865    0.74933   1.00
C2       0.39483    0.75115    0.75091   1.00
C3       0.58434    0.78306    0.75805   1.00
C3       0.41641    0.73515    0.78199   1.00
C3       0.58320    0.71494    0.74119   1.00
C3       0.41585    0.76633    0.71920   1.00
H1       0.52808    0.81085    0.76529   1.00
H1       0.47315    0.72215    0.80622   1.00
H1       0.60032    0.80952    0.76454   1.00
H1       0.40105    0.72312    0.80684   1.00
H1       0.59821    0.68806    0.73411   1.00
H1       0.39957    0.77833    0.69493   1.00
C5       0.47761    0.78186    0.68226   1.00
H1       0.52599    0.68920    0.73454   1.00
H2       0.45646    0.79648    0.66249   1.00
H2       0.49897    0.80454    0.69122   1.00
N1       0.49708    0.75056    0.66069   1.00
C6       0.47988    0.71875    0.64532   1.00
C6       0.53540    0.74852    0.65227   1.00
C6       0.50757    0.69590    0.62716   1.00
C6       0.54289    0.71483    0.63160   1.00
H3       0.44901    0.71231    0.64735   1.00
H3       0.55691    0.76995    0.66101   1.00
H3       0.50259    0.66852    0.61231   1.00
H3       0.57097    0.70514    0.62099   1.00
C4       0.97915    0.75005    0.74991   1.00
C4       1.02085    0.74995    0.75009   1.00
C3       0.95708    0.78381    0.74154   1.00
C3       1.04225    0.73452    0.71845   1.00
C3       0.95816    0.71557    0.75827   1.00
C3a      1.04263    0.76587    0.78187   1.00
C2       0.89483    0.74865    0.75067   1.00
C2       1.10517    0.75115    0.74909   1.00
C3       0.91566    0.78306    0.74195   1.00
C3       1.08359    0.73515    0.71801   1.00
C3       0.91680    0.71494    0.75881   1.00
C3       1.08415    0.76633    0.78080   1.00
H1       0.97192    0.81085    0.73471   1.00
H1       1.02685    0.72215    0.69378   1.00
H1       0.89968    0.80952    0.73546   1.00
H1       1.09895    0.72312    0.69316   1.00
H1       0.90179    0.68806    0.76589   1.00
H1       1.10043    0.77833    0.80507   1.00
C5       1.02239    0.78186    0.81774   1.00
H1       0.97401    0.68920    0.76546   1.00
H2       1.04354    0.79648    0.83751   1.00
H2       1.00103    0.80454    0.80878   1.00
N1       1.00292    0.75056    0.83931   1.00
C6       1.02012    0.71875    0.85468   1.00
C6       0.96460    0.74852    0.84773   1.00
C6       0.99243    0.69590    0.87284   1.00
C6       0.95711    0.71483    0.86840   1.00
H3       1.05099    0.71231    0.85265   1.00
H3       0.94309    0.76995    0.83899   1.00
H3       0.99741    0.66852    0.88769   1.00
H3       0.92903    0.70514    0.87901   1.00
C4       0.75009    0.52085    0.75005   1.00
C4       0.74991    0.47915    0.74995   1.00
C3       0.75846    0.54292    0.78381   1.00
C3       0.78155    0.45775    0.73452   1.00
C3       0.74173    0.54184    0.71557   1.00
C3a      0.71813    0.45737    0.76587   1.00
C2       0.74933    0.60517    0.74865   1.00
C2       0.75091    0.39483    0.75115   1.00
C3       0.75805    0.58434    0.78306   1.00
C3       0.78199    0.41641    0.73515   1.00
C3       0.74119    0.58320    0.71494   1.00
C3       0.71920    0.41585    0.76633   1.00
H1       0.76529    0.52808    0.81085   1.00
H1       0.80622    0.47315    0.72215   1.00
H1       0.76454    0.60032    0.80952   1.00
H1       0.80684    0.40105    0.72312   1.00
H1       0.73411    0.59821    0.68806   1.00
H1       0.69493    0.39957    0.77833   1.00
C5       0.68226    0.47761    0.78186   1.00
H1       0.73454    0.52599    0.68920   1.00
H2       0.66249    0.45646    0.79648   1.00
H2       0.69122    0.49897    0.80454   1.00
N1       0.66069    0.49708    0.75056   1.00
C6       0.64532    0.47988    0.71875   1.00
C6       0.65227    0.53540    0.74852   1.00
C6       0.62716    0.50757    0.69590   1.00
C6       0.63160    0.54289    0.71483   1.00
H3       0.64735    0.44901    0.71231   1.00
H3       0.66101    0.55691    0.76995   1.00
H3       0.61231    0.50259    0.66852   1.00
H3       0.62099    0.57097    0.70514   1.00
C4       0.75005    0.75009    0.52085   1.00
C4       0.74995    0.74991    0.47915   1.00
C3       0.78381    0.75846    0.54292   1.00
C3       0.73452    0.78155    0.45775   1.00
C3       0.71557    0.74173    0.54184   1.00
C3a      0.76587    0.71813    0.45737   1.00
C2       0.74865    0.74933    0.60517   1.00
C2       0.75115    0.75091    0.39483   1.00
C3       0.78306    0.75805    0.58434   1.00
C3       0.73515    0.78199    0.41641   1.00
C3       0.71494    0.74119    0.58320   1.00
C3       0.76633    0.71920    0.41585   1.00
H1       0.81085    0.76529    0.52808   1.00
H1       0.72215    0.80622    0.47315   1.00
H1       0.80952    0.76454    0.60032   1.00
H1       0.72312    0.80684    0.40105   1.00
H1       0.68806    0.73411    0.59821   1.00
H1       0.77833    0.69493    0.39957   1.00
C5       0.78186    0.68226    0.47761   1.00
H1       0.68920    0.73454    0.52599   1.00
H2       0.79648    0.66249    0.45646   1.00
H2       0.80454    0.69122    0.49897   1.00
N1       0.75056    0.66069    0.49708   1.00
C6       0.71875    0.64532    0.47988   1.00
C6       0.74852    0.65227    0.53540   1.00
C6       0.69590    0.62716    0.50757   1.00
C6       0.71483    0.63160    0.54289   1.00
H3       0.71231    0.64735    0.44901   1.00
H3       0.76995    0.66101    0.55691   1.00
H3       0.66852    0.61231    0.50259   1.00
H3       0.70514    0.62099    0.57097   1.00
C4       0.25005    0.24991    0.97915   1.00
C4       0.24995    0.25009    1.02085   1.00
C3       0.28381    0.24154    0.95708   1.00
C3       0.23452    0.21845    1.04225   1.00
C3       0.21557    0.25827    0.95816   1.00
C3a      0.26587    0.28187    1.04263   1.00
C2       0.24865    0.25067    0.89483   1.00
C2       0.25115    0.24909    1.10517   1.00
C3       0.28306    0.24195    0.91566   1.00
C3       0.23515    0.21801    1.08359   1.00
C3       0.21494    0.25881    0.91680   1.00
C3       0.26633    0.28080    1.08415   1.00
H1       0.31085    0.23471    0.97192   1.00
H1       0.22215    0.19378    1.02685   1.00
H1       0.30952    0.23546    0.89968   1.00
H1       0.22312    0.19316    1.09895   1.00
H1       0.18806    0.26589    0.90179   1.00
H1       0.27833    0.30507    1.10043   1.00
C5       0.28186    0.31774    1.02239   1.00
H1       0.18920    0.26546    0.97401   1.00
H2       0.29648    0.33751    1.04354   1.00
H2       0.30454    0.30878    1.00103   1.00
N1       0.25056    0.33931    1.00292   1.00
C6       0.21875    0.35468    1.02012   1.00
C6       0.24852    0.34773    0.96460   1.00
C6       0.19590    0.37284    0.99243   1.00
C6       0.21483    0.36840    0.95711   1.00
H3       0.21231    0.35265    1.05099   1.00
H3       0.26995    0.33899    0.94309   1.00
H3       0.16852    0.38769    0.99741   1.00
H3       0.20514    0.37901    0.92903   1.00
C4       0.24991    0.47915    0.75005   1.00
C4       0.25009    0.52085    0.74995   1.00
C3       0.24154    0.45708    0.78381   1.00
C3       0.21845    0.54225    0.73452   1.00
C3       0.25827    0.45816    0.71557   1.00
C3a      0.28187    0.54263    0.76587   1.00
C2       0.25067    0.39483    0.74865   1.00
C2       0.24909    0.60517    0.75115   1.00
C3       0.24195    0.41566    0.78306   1.00
C3       0.21801    0.58359    0.73515   1.00
C3       0.25881    0.41680    0.71494   1.00
C3       0.28080    0.58415    0.76633   1.00
H1       0.23471    0.47192    0.81085   1.00
H1       0.19378    0.52685    0.72215   1.00
H1       0.23546    0.39968    0.80952   1.00
H1       0.19316    0.59895    0.72312   1.00
H1       0.26589    0.40179    0.68806   1.00
H1       0.30507    0.60043    0.77833   1.00
C5       0.31774    0.52239    0.78186   1.00
H1       0.26546    0.47401    0.68920   1.00
H2       0.33751    0.54354    0.79648   1.00
H2       0.30878    0.50103    0.80454   1.00
N1       0.33931    0.50292    0.75056   1.00
C6       0.35468    0.52012    0.71875   1.00
C6       0.34773    0.46460    0.74852   1.00
C6       0.37284    0.49243    0.69590   1.00
C6       0.36840    0.45711    0.71483   1.00
H3       0.35265    0.55099    0.71231   1.00
H3       0.33899    0.44309    0.76995   1.00
H3       0.38769    0.49741    0.66852   1.00
H3       0.37901    0.42903    0.70514   1.00
C4       0.02085    0.25005    0.75009   1.00
C4       -0.02085   0.24995    0.74991   1.00
C3       0.04292    0.28381    0.75846   1.00
C3       -0.04225   0.23452    0.78155   1.00
C3       0.04184    0.21557    0.74173   1.00
C3a      -0.04263   0.26587    0.71813   1.00
C2       0.10517    0.24865    0.74933   1.00
C2       -0.10517   0.25115    0.75091   1.00
C3       0.08434    0.28306    0.75805   1.00
C3       -0.08359   0.23515    0.78199   1.00
C3       0.08320    0.21494    0.74119   1.00
C3       -0.08415   0.26633    0.71920   1.00
H1       0.02808    0.31085    0.76529   1.00
H1       -0.02685   0.22215    0.80622   1.00
H1       0.10032    0.30952    0.76454   1.00
H1       -0.09895   0.22312    0.80684   1.00
H1       0.09821    0.18806    0.73411   1.00
H1       -0.10043   0.27833    0.69493   1.00
C5       -0.02239   0.28186    0.68226   1.00
H1       0.02599    0.18920    0.73454   1.00
H2       -0.04354   0.29648    0.66249   1.00
H2       -0.00103   0.30454    0.69122   1.00
N1       -0.00292   0.25056    0.66069   1.00
C6       -0.02012   0.21875    0.64532   1.00
C6       0.03540    0.24852    0.65227   1.00
C6       0.00757    0.19590    0.62716   1.00
C6       0.04289    0.21483    0.63160   1.00
H3       -0.05099   0.21231    0.64735   1.00
H3       0.05691    0.26995    0.66101   1.00
H3       0.00259    0.16852    0.61231   1.00
H3       0.07097    0.20514    0.62099   1.00
C4       0.47915    0.25005    0.74991   1.00
C4       0.52085    0.24995    0.75009   1.00
C3       0.45708    0.28381    0.74154   1.00
C3       0.54225    0.23452    0.71845   1.00
C3       0.45816    0.21557    0.75827   1.00
C3a      0.54263    0.26587    0.78187   1.00
C2       0.39483    0.24865    0.75067   1.00
C2       0.60517    0.25115    0.74909   1.00
C3       0.41566    0.28306    0.74195   1.00
C3       0.58359    0.23515    0.71801   1.00
C3       0.41680    0.21494    0.75881   1.00
C3       0.58415    0.26633    0.78080   1.00
H1       0.47192    0.31085    0.73471   1.00
H1       0.52685    0.22215    0.69378   1.00
H1       0.39968    0.30952    0.73546   1.00
H1       0.59895    0.22312    0.69316   1.00
H1       0.40179    0.18806    0.76589   1.00
H1       0.60043    0.27833    0.80507   1.00
C5       0.52239    0.28186    0.81774   1.00
H1       0.47401    0.18920    0.76546   1.00
H2       0.54354    0.29648    0.83751   1.00
H2       0.50103    0.30454    0.80878   1.00
N1       0.50292    0.25056    0.83931   1.00
C6       0.52012    0.21875    0.85468   1.00
C6       0.46460    0.24852    0.84773   1.00
C6       0.49243    0.19590    0.87284   1.00
C6       0.45711    0.21483    0.86840   1.00
H3       0.55099    0.21231    0.85265   1.00
H3       0.44309    0.26995    0.83899   1.00
H3       0.49741    0.16852    0.88769   1.00
H3       0.42903    0.20514    0.87901   1.00
C4       0.25009    0.02085    0.75005   1.00
C4       0.24991    -0.02085   0.74995   1.00
C3       0.25846    0.04292    0.78381   1.00
C3       0.28155    -0.04225   0.73452   1.00
C3       0.24173    0.04184    0.71557   1.00
C3a      0.21813    -0.04263   0.76587   1.00
C2       0.24933    0.10517    0.74865   1.00
C2       0.25091    -0.10517   0.75115   1.00
C3       0.25805    0.08434    0.78306   1.00
C3       0.28199    -0.08359   0.73515   1.00
C3       0.24119    0.08320    0.71494   1.00
C3       0.21920    -0.08415   0.76633   1.00
H1       0.26529    0.02808    0.81085   1.00
H1       0.30622    -0.02685   0.72215   1.00
H1       0.26454    0.10032    0.80952   1.00
H1       0.30684    -0.09895   0.72312   1.00
H1       0.23411    0.09821    0.68806   1.00
H1       0.19493    -0.10043   0.77833   1.00
C5       0.18226    -0.02239   0.78186   1.00
H1       0.23454    0.02599    0.68920   1.00
H2       0.16249    -0.04354   0.79648   1.00
H2       0.19122    -0.00103   0.80454   1.00
N1       0.16069    -0.00292   0.75056   1.00
C6       0.14532    -0.02012   0.71875   1.00
C6       0.15227    0.03540    0.74852   1.00
C6       0.12716    0.00757    0.69590   1.00
C6       0.13160    0.04289    0.71483   1.00
H3       0.14735    -0.05099   0.71231   1.00
H3       0.16101    0.05691    0.76995   1.00
H3       0.11231    0.00259    0.66852   1.00
H3       0.12099    0.07097    0.70514   1.00
C4       0.25005    0.25009    0.52085   1.00
C4       0.24995    0.24991    0.47915   1.00
C3       0.28381    0.25846    0.54292   1.00
C3       0.23452    0.28155    0.45775   1.00
C3       0.21557    0.24173    0.54184   1.00
C3a      0.26587    0.21813    0.45737   1.00
C2       0.24865    0.24933    0.60517   1.00
C2       0.25115    0.25091    0.39483   1.00
C3       0.28306    0.25805    0.58434   1.00
C3       0.23515    0.28199    0.41641   1.00
C3       0.21494    0.24119    0.58320   1.00
C3       0.26633    0.21920    0.41585   1.00
H1       0.31085    0.26529    0.52808   1.00
H1       0.22215    0.30622    0.47315   1.00
H1       0.30952    0.26454    0.60032   1.00
H1       0.22312    0.30684    0.40105   1.00
H1       0.18806    0.23411    0.59821   1.00
H1       0.27833    0.19493    0.39957   1.00
C5       0.28186    0.18226    0.47761   1.00
H1       0.18920    0.23454    0.52599   1.00
H2       0.29648    0.16249    0.45646   1.00
H2       0.30454    0.19122    0.49897   1.00
N1       0.25056    0.16069    0.49708   1.00
C6       0.21875    0.14532    0.47988   1.00
C6       0.24852    0.15227    0.53540   1.00
C6       0.19590    0.12716    0.50757   1.00
C6       0.21483    0.13160    0.54289   1.00
H3       0.21231    0.14735    0.44901   1.00
H3       0.26995    0.16101    0.55691   1.00
H3       0.16852    0.11231    0.50259   1.00
H3       0.20514    0.12099    0.57097   1.00
C4       0.25005    0.74991    0.47915   1.00
C4       0.24995    0.75009    0.52085   1.00
C3       0.28381    0.74154    0.45708   1.00
C3       0.23452    0.71845    0.54225   1.00
C3       0.21557    0.75827    0.45816   1.00
C3a      0.26587    0.78187    0.54263   1.00
C2       0.24865    0.75067    0.39483   1.00
C2       0.25115    0.74909    0.60517   1.00
C3       0.28306    0.74195    0.41566   1.00
C3       0.23515    0.71801    0.58359   1.00
C3       0.21494    0.75881    0.41680   1.00
C3       0.26633    0.78080    0.58415   1.00
H1       0.31085    0.73471    0.47192   1.00
H1       0.22215    0.69378    0.52685   1.00
H1       0.30952    0.73546    0.39968   1.00
H1       0.22312    0.69316    0.59895   1.00
H1       0.18806    0.76589    0.40179   1.00
H1       0.27833    0.80507    0.60043   1.00
C5       0.28186    0.81774    0.52239   1.00
H1       0.18920    0.76546    0.47401   1.00
H2       0.29648    0.83751    0.54354   1.00
H2       0.30454    0.80878    0.50103   1.00
N1       0.25056    0.83931    0.50292   1.00
C6       0.21875    0.85468    0.52012   1.00
C6       0.24852    0.84773    0.46460   1.00
C6       0.19590    0.87284    0.49243   1.00
C6       0.21483    0.86840    0.45711   1.00
H3       0.21231    0.85265    0.55099   1.00
H3       0.26995    0.83899    0.44309   1.00
H3       0.16852    0.88769    0.49741   1.00
H3       0.20514    0.87901    0.42903   1.00
C4       0.24991    0.97915    0.25005   1.00
C4       0.25009    1.02085    0.24995   1.00
C3       0.24154    0.95708    0.28381   1.00
C3       0.21845    1.04225    0.23452   1.00
C3       0.25827    0.95816    0.21557   1.00
C3a      0.28187    1.04263    0.26587   1.00
C2       0.25067    0.89483    0.24865   1.00
C2       0.24909    1.10517    0.25115   1.00
C3       0.24195    0.91566    0.28306   1.00
C3       0.21801    1.08359    0.23515   1.00
C3       0.25881    0.91680    0.21494   1.00
C3       0.28080    1.08415    0.26633   1.00
H1       0.23471    0.97192    0.31085   1.00
H1       0.19378    1.02685    0.22215   1.00
H1       0.23546    0.89968    0.30952   1.00
H1       0.19316    1.09895    0.22312   1.00
H1       0.26589    0.90179    0.18806   1.00
H1       0.30507    1.10043    0.27833   1.00
C5       0.31774    1.02239    0.28186   1.00
H1       0.26546    0.97401    0.18920   1.00
H2       0.33751    1.04354    0.29648   1.00
H2       0.30878    1.00103    0.30454   1.00
N1       0.33931    1.00292    0.25056   1.00
C6       0.35468    1.02012    0.21875   1.00
C6       0.34773    0.96460    0.24852   1.00
C6       0.37284    0.99243    0.19590   1.00
C6       0.36840    0.95711    0.21483   1.00
H3       0.35265    1.05099    0.21231   1.00
H3       0.33899    0.94309    0.26995   1.00
H3       0.38769    0.99741    0.16852   1.00
H3       0.37901    0.92903    0.20514   1.00
C4       0.02085    0.75005    0.25009   1.00
C4       -0.02085   0.74995    0.24991   1.00
C3       0.04292    0.78381    0.25846   1.00
C3       -0.04225   0.73452    0.28155   1.00
C3       0.04184    0.71557    0.24173   1.00
C3a      -0.04263   0.76587    0.21813   1.00
C2       0.10517    0.74865    0.24933   1.00
C2       -0.10517   0.75115    0.25091   1.00
C3       0.08434    0.78306    0.25805   1.00
C3       -0.08359   0.73515    0.28199   1.00
C3       0.08320    0.71494    0.24119   1.00
C3       -0.08415   0.76633    0.21920   1.00
H1       0.02808    0.81085    0.26529   1.00
H1       -0.02685   0.72215    0.30622   1.00
H1       0.10032    0.80952    0.26454   1.00
H1       -0.09895   0.72312    0.30684   1.00
H1       0.09821    0.68806    0.23411   1.00
H1       -0.10043   0.77833    0.19493   1.00
C5       -0.02239   0.78186    0.18226   1.00
H1       0.02599    0.68920    0.23454   1.00
H2       -0.04354   0.79648    0.16249   1.00
H2       -0.00103   0.80454    0.19122   1.00
N1       -0.00292   0.75056    0.16069   1.00
C6       -0.02012   0.71875    0.14532   1.00
C6       0.03540    0.74852    0.15227   1.00
C6       0.00757    0.69590    0.12716   1.00
C6       0.04289    0.71483    0.13160   1.00
H3       -0.05099   0.71231    0.14735   1.00
H3       0.05691    0.76995    0.16101   1.00
H3       0.00259    0.66852    0.11231   1.00
H3       0.07097    0.70514    0.12099   1.00
C4       0.47915    0.75005    0.24991   1.00
C4       0.52085    0.74995    0.25009   1.00
C3       0.45708    0.78381    0.24154   1.00
C3       0.54225    0.73452    0.21845   1.00
C3       0.45816    0.71557    0.25827   1.00
C3a      0.54263    0.76587    0.28187   1.00
C2       0.39483    0.74865    0.25067   1.00
C2       0.60517    0.75115    0.24909   1.00
C3       0.41566    0.78306    0.24195   1.00
C3       0.58359    0.73515    0.21801   1.00
C3       0.41680    0.71494    0.25881   1.00
C3       0.58415    0.76633    0.28080   1.00
H1       0.47192    0.81085    0.23471   1.00
H1       0.52685    0.72215    0.19378   1.00
H1       0.39968    0.80952    0.23546   1.00
H1       0.59895    0.72312    0.19316   1.00
H1       0.40179    0.68806    0.26589   1.00
H1       0.60043    0.77833    0.30507   1.00
C5       0.52239    0.78186    0.31774   1.00
H1       0.47401    0.68920    0.26546   1.00
H2       0.54354    0.79648    0.33751   1.00
H2       0.50103    0.80454    0.30878   1.00
N1       0.50292    0.75056    0.33931   1.00
C6       0.52012    0.71875    0.35468   1.00
C6       0.46460    0.74852    0.34773   1.00
C6       0.49243    0.69590    0.37284   1.00
C6       0.45711    0.71483    0.36840   1.00
H3       0.55099    0.71231    0.35265   1.00
H3       0.44309    0.76995    0.33899   1.00
H3       0.49741    0.66852    0.38769   1.00
H3       0.42903    0.70514    0.37901   1.00
C4       0.25009    0.52085    0.25005   1.00
C4       0.24991    0.47915    0.24995   1.00
C3       0.25846    0.54292    0.28381   1.00
C3       0.28155    0.45775    0.23452   1.00
C3       0.24173    0.54184    0.21557   1.00
C3a      0.21813    0.45737    0.26587   1.00
C2       0.24933    0.60517    0.24865   1.00
C2       0.25091    0.39483    0.25115   1.00
C3       0.25805    0.58434    0.28306   1.00
C3       0.28199    0.41641    0.23515   1.00
C3       0.24119    0.58320    0.21494   1.00
C3       0.21920    0.41585    0.26633   1.00
H1       0.26529    0.52808    0.31085   1.00
H1       0.30622    0.47315    0.22215   1.00
H1       0.26454    0.60032    0.30952   1.00
H1       0.30684    0.40105    0.22312   1.00
H1       0.23411    0.59821    0.18806   1.00
H1       0.19493    0.39957    0.27833   1.00
C5       0.18226    0.47761    0.28186   1.00
H1       0.23454    0.52599    0.18920   1.00
H2       0.16249    0.45646    0.29648   1.00
H2       0.19122    0.49897    0.30454   1.00
N1       0.16069    0.49708    0.25056   1.00
C6       0.14532    0.47988    0.21875   1.00
C6       0.15227    0.53540    0.24852   1.00
C6       0.12716    0.50757    0.19590   1.00
C6       0.13160    0.54289    0.21483   1.00
H3       0.14735    0.44901    0.21231   1.00
H3       0.16101    0.55691    0.26995   1.00
H3       0.11231    0.50259    0.16852   1.00
H3       0.12099    0.57097    0.20514   1.00
C4       0.25005    0.75009    0.02085   1.00
C4       0.24995    0.74991    -0.02085   1.00
C3       0.28381    0.75846    0.04292   1.00
C3       0.23452    0.78155    -0.04225   1.00
C3       0.21557    0.74173    0.04184   1.00
C3a      0.26587    0.71813    -0.04263   1.00
C2       0.24865    0.74933    0.10517   1.00
C2       0.25115    0.75091    -0.10517   1.00
C3       0.28306    0.75805    0.08434   1.00
C3       0.23515    0.78199    -0.08359   1.00
C3       0.21494    0.74119    0.08320   1.00
C3       0.26633    0.71920    -0.08415   1.00
H1       0.31085    0.76529    0.02808   1.00
H1       0.22215    0.80622    -0.02685   1.00
H1       0.30952    0.76454    0.10032   1.00
H1       0.22312    0.80684    -0.09895   1.00
H1       0.18806    0.73411    0.09821   1.00
H1       0.27833    0.69493    -0.10043   1.00
C5       0.28186    0.68226    -0.02239   1.00
H1       0.18920    0.73454    0.02599   1.00
H2       0.29648    0.66249    -0.04354   1.00
H2       0.30454    0.69122    -0.00103   1.00
N1       0.25056    0.66069    -0.00292   1.00
C6       0.21875    0.64532    -0.02012   1.00
C6       0.24852    0.65227    0.03540   1.00
C6       0.19590    0.62716    0.00757   1.00
C6       0.21483    0.63160    0.04289   1.00
H3       0.21231    0.64735    -0.05099   1.00
H3       0.26995    0.66101    0.05691   1.00
H3       0.16852    0.61231    0.00259   1.00
H3       0.20514    0.62099    0.07097   1.00
C4       0.75005    0.24991    0.47915   1.00
C4       0.74995    0.25009    0.52085   1.00
C3       0.78381    0.24154    0.45708   1.00
C3       0.73452    0.21845    0.54225   1.00
C3       0.71557    0.25827    0.45816   1.00
C3a      0.76587    0.28187    0.54263   1.00
C2       0.74865    0.25067    0.39483   1.00
C2       0.75115    0.24909    0.60517   1.00
C3       0.78306    0.24195    0.41566   1.00
C3       0.73515    0.21801    0.58359   1.00
C3       0.71494    0.25881    0.41680   1.00
C3       0.76633    0.28080    0.58415   1.00
H1       0.81085    0.23471    0.47192   1.00
H1       0.72215    0.19378    0.52685   1.00
H1       0.80952    0.23546    0.39968   1.00
H1       0.72312    0.19316    0.59895   1.00
H1       0.68806    0.26589    0.40179   1.00
H1       0.77833    0.30507    0.60043   1.00
C5       0.78186    0.31774    0.52239   1.00
H1       0.68920    0.26546    0.47401   1.00
H2       0.79648    0.33751    0.54354   1.00
H2       0.80454    0.30878    0.50103   1.00
N1       0.75056    0.33931    0.50292   1.00
C6       0.71875    0.35468    0.52012   1.00
C6       0.74852    0.34773    0.46460   1.00
C6       0.69590    0.37284    0.49243   1.00
C6       0.71483    0.36840    0.45711   1.00
H3       0.71231    0.35265    0.55099   1.00
H3       0.76995    0.33899    0.44309   1.00
H3       0.66852    0.38769    0.49741   1.00
H3       0.70514    0.37901    0.42903   1.00
C4       0.74991    0.47915    0.25005   1.00
C4       0.75009    0.52085    0.24995   1.00
C3       0.74154    0.45708    0.28381   1.00
C3       0.71845    0.54225    0.23452   1.00
C3       0.75827    0.45816    0.21557   1.00
C3a      0.78187    0.54263    0.26587   1.00
C2       0.75067    0.39483    0.24865   1.00
C2       0.74909    0.60517    0.25115   1.00
C3       0.74195    0.41566    0.28306   1.00
C3       0.71801    0.58359    0.23515   1.00
C3       0.75881    0.41680    0.21494   1.00
C3       0.78080    0.58415    0.26633   1.00
H1       0.73471    0.47192    0.31085   1.00
H1       0.69378    0.52685    0.22215   1.00
H1       0.73546    0.39968    0.30952   1.00
H1       0.69316    0.59895    0.22312   1.00
H1       0.76589    0.40179    0.18806   1.00
H1       0.80507    0.60043    0.27833   1.00
C5       0.81774    0.52239    0.28186   1.00
H1       0.76546    0.47401    0.18920   1.00
H2       0.83751    0.54354    0.29648   1.00
H2       0.80878    0.50103    0.30454   1.00
N1       0.83931    0.50292    0.25056   1.00
C6       0.85468    0.52012    0.21875   1.00
C6       0.84773    0.46460    0.24852   1.00
C6       0.87284    0.49243    0.19590   1.00
C6       0.86840    0.45711    0.21483   1.00
H3       0.85265    0.55099    0.21231   1.00
H3       0.83899    0.44309    0.26995   1.00
H3       0.88769    0.49741    0.16852   1.00
H3       0.87901    0.42903    0.20514   1.00
C4       0.52085    0.25005    0.25009   1.00
C4       0.47915    0.24995    0.24991   1.00
C3       0.54292    0.28381    0.25846   1.00
C3       0.45775    0.23452    0.28155   1.00
C3       0.54184    0.21557    0.24173   1.00
C3a      0.45737    0.26587    0.21813   1.00
C2       0.60517    0.24865    0.24933   1.00
C2       0.39483    0.25115    0.25091   1.00
C3       0.58434    0.28306    0.25805   1.00
C3       0.41641    0.23515    0.28199   1.00
C3       0.58320    0.21494    0.24119   1.00
C3       0.41585    0.26633    0.21920   1.00
H1       0.52808    0.31085    0.26529   1.00
H1       0.47315    0.22215    0.30622   1.00
H1       0.60032    0.30952    0.26454   1.00
H1       0.40105    0.22312    0.30684   1.00
H1       0.59821    0.18806    0.23411   1.00
H1       0.39957    0.27833    0.19493   1.00
C5       0.47761    0.28186    0.18226   1.00
H1       0.52599    0.18920    0.23454   1.00
H2       0.45646    0.29648    0.16249   1.00
H2       0.49897    0.30454    0.19122   1.00
N1       0.49708    0.25056    0.16069   1.00
C6       0.47988    0.21875    0.14532   1.00
C6       0.53540    0.24852    0.15227   1.00
C6       0.50757    0.19590    0.12716   1.00
C6       0.54289    0.21483    0.13160   1.00
H3       0.44901    0.21231    0.14735   1.00
H3       0.55691    0.26995    0.16101   1.00
H3       0.50259    0.16852    0.11231   1.00
H3       0.57097    0.20514    0.12099   1.00
C4       0.97915    0.25005    0.24991   1.00
C4       1.02085    0.24995    0.25009   1.00
C3       0.95708    0.28381    0.24154   1.00
C3       1.04225    0.23452    0.21845   1.00
C3       0.95816    0.21557    0.25827   1.00
C3a      1.04263    0.26587    0.28187   1.00
C2       0.89483    0.24865    0.25067   1.00
C2       1.10517    0.25115    0.24909   1.00
C3       0.91566    0.28306    0.24195   1.00
C3       1.08359    0.23515    0.21801   1.00
C3       0.91680    0.21494    0.25881   1.00
C3       1.08415    0.26633    0.28080   1.00
H1       0.97192    0.31085    0.23471   1.00
H1       1.02685    0.22215    0.19378   1.00
H1       0.89968    0.30952    0.23546   1.00
H1       1.09895    0.22312    0.19316   1.00
H1       0.90179    0.18806    0.26589   1.00
H1       1.10043    0.27833    0.30507   1.00
C5       1.02239    0.28186    0.31774   1.00
H1       0.97401    0.18920    0.26546   1.00
H2       1.04354    0.29648    0.33751   1.00
H2       1.00103    0.30454    0.30878   1.00
N1       1.00292    0.25056    0.33931   1.00
C6       1.02012    0.21875    0.35468   1.00
C6       0.96460    0.24852    0.34773   1.00
C6       0.99243    0.19590    0.37284   1.00
C6       0.95711    0.21483    0.36840   1.00
H3       1.05099    0.21231    0.35265   1.00
H3       0.94309    0.26995    0.33899   1.00
H3       0.99741    0.16852    0.38769   1.00
H3       0.92903    0.20514    0.37901   1.00
C4       0.75009    0.02085    0.25005   1.00
C4       0.74991    -0.02085   0.24995   1.00
C3       0.75846    0.04292    0.28381   1.00
C3       0.78155    -0.04225   0.23452   1.00
C3       0.74173    0.04184    0.21557   1.00
C3a      0.71813    -0.04263   0.26587   1.00
C2       0.74933    0.10517    0.24865   1.00
C2       0.75091    -0.10517   0.25115   1.00
C3       0.75805    0.08434    0.28306   1.00
C3       0.78199    -0.08359   0.23515   1.00
C3       0.74119    0.08320    0.21494   1.00
C3       0.71920    -0.08415   0.26633   1.00
H1       0.76529    0.02808    0.31085   1.00
H1       0.80622    -0.02685   0.22215   1.00
H1       0.76454    0.10032    0.30952   1.00
H1       0.80684    -0.09895   0.22312   1.00
H1       0.73411    0.09821    0.18806   1.00
H1       0.69493    -0.10043   0.27833   1.00
C5       0.68226    -0.02239   0.28186   1.00
H1       0.73454    0.02599    0.18920   1.00
H2       0.66249    -0.04354   0.29648   1.00
H2       0.69122    -0.00103   0.30454   1.00
N1       0.66069    -0.00292   0.25056   1.00
C6       0.64532    -0.02012   0.21875   1.00
C6       0.65227    0.03540    0.24852   1.00
C6       0.62716    0.00757    0.19590   1.00
C6       0.63160    0.04289    0.21483   1.00
H3       0.64735    -0.05099   0.21231   1.00
H3       0.66101    0.05691    0.26995   1.00
H3       0.61231    0.00259    0.16852   1.00
H3       0.62099    0.07097    0.20514   1.00
C4       0.75005    0.25009    0.02085   1.00
C4       0.74995    0.24991    -0.02085   1.00
C3       0.78381    0.25846    0.04292   1.00
C3       0.73452    0.28155    -0.04225   1.00
C3       0.71557    0.24173    0.04184   1.00
C3a      0.76587    0.21813    -0.04263   1.00
C2       0.74865    0.24933    0.10517   1.00
C2       0.75115    0.25091    -0.10517   1.00
C3       0.78306    0.25805    0.08434   1.00
C3       0.73515    0.28199    -0.08359   1.00
C3       0.71494    0.24119    0.08320   1.00
C3       0.76633    0.21920    -0.08415   1.00
H1       0.81085    0.26529    0.02808   1.00
H1       0.72215    0.30622    -0.02685   1.00
H1       0.80952    0.26454    0.10032   1.00
H1       0.72312    0.30684    -0.09895   1.00
H1       0.68806    0.23411    0.09821   1.00
H1       0.77833    0.19493    -0.10043   1.00
C5       0.78186    0.18226    -0.02239   1.00
H1       0.68920    0.23454    0.02599   1.00
H2       0.79648    0.16249    -0.04354   1.00
H2       0.80454    0.19122    -0.00103   1.00
N1       0.75056    0.16069    -0.00292   1.00
C6       0.71875    0.14532    -0.02012   1.00
C6       0.74852    0.15227    0.03540   1.00
C6       0.69590    0.12716    0.00757   1.00
C6       0.71483    0.13160    0.04289   1.00
H3       0.71231    0.14735    -0.05099   1.00
H3       0.76995    0.16101    0.05691   1.00
H3       0.66852    0.11231    0.00259   1.00
H3       0.70514    0.12099    0.07097   1.00
C4       1.00005    0.99991    1.22915   1.00
C4       0.99995    1.00009    1.27085   1.00
C3       1.03381    0.99154    1.20708   1.00
C3       0.98452    0.96845    1.29225   1.00
C3       0.96557    1.00827    1.20816   1.00
C3a      1.01587    1.03187    1.29263   1.00
C2       0.99865    1.00067    1.14483   1.00
C2       1.00115    0.99909    1.35517   1.00
C3       1.03306    0.99195    1.16566   1.00
C3       0.98515    0.96801    1.33359   1.00
C3       0.96494    1.00881    1.16680   1.00
C3       1.01633    1.03080    1.33415   1.00
H1       1.06085    0.98471    1.22192   1.00
H1       0.97215    0.94378    1.27685   1.00
H1       1.05952    0.98546    1.14968   1.00
H1       0.97312    0.94316    1.34895   1.00
H1       0.93806    1.01589    1.15179   1.00
H1       1.02833    1.05507    1.35043   1.00
C5       1.03186    1.06774    1.27239   1.00
H1       0.93920    1.01546    1.22401   1.00
H2       1.04648    1.08751    1.29354   1.00
H2       1.05454    1.05878    1.25103   1.00
N1       1.00056    1.08931    1.25292   1.00
C6       0.96875    1.10468    1.27012   1.00
C6       0.99852    1.09773    1.21460   1.00
C6       0.94590    1.12284    1.24243   1.00
C6       0.96483    1.11840    1.20711   1.00
H3       0.96231    1.10265    1.30099   1.00
H3       1.01995    1.08899    1.19309   1.00
H3       0.91852    1.13769    1.24741   1.00
H3       0.95514    1.12901    1.17903   1.00
C4       0.99991    1.22915    1.00005   1.00
C4       1.00009    1.27085    0.99995   1.00
C3       0.99154    1.20708    1.03381   1.00
C3       0.96845    1.29225    0.98452   1.00
C3       1.00827    1.20816    0.96557   1.00
C3a      1.03187    1.29263    1.01587   1.00
C2       1.00067    1.14483    0.99865   1.00
C2       0.99909    1.35517    1.00115   1.00
C3       0.99195    1.16566    1.03306   1.00
C3       0.96801    1.33359    0.98515   1.00
C3       1.00881    1.16680    0.96494   1.00
C3       1.03080    1.33415    1.01633   1.00
H1       0.98471    1.22192    1.06085   1.00
H1       0.94378    1.27685    0.97215   1.00
H1       0.98546    1.14968    1.05952   1.00
H1       0.94316    1.34895    0.97312   1.00
H1       1.01589    1.15179    0.93806   1.00
H1       1.05507    1.35043    1.02833   1.00
C5       1.06774    1.27239    1.03186   1.00
H1       1.01546    1.22401    0.93920   1.00
H2       1.08751    1.29354    1.04648   1.00
H2       1.05878    1.25103    1.05454   1.00
N1       1.08931    1.25292    1.00056   1.00
C6       1.10468    1.27012    0.96875   1.00
C6       1.09773    1.21460    0.99852   1.00
C6       1.12284    1.24243    0.94590   1.00
C6       1.11840    1.20711    0.96483   1.00
H3       1.10265    1.30099    0.96231   1.00
H3       1.08899    1.19309    1.01995   1.00
H3       1.13769    1.24741    0.91852   1.00
H3       1.12901    1.17903    0.95514   1.00
C4       0.77085    1.00005    1.00009   1.00
C4       0.72915    0.99995    0.99991   1.00
C3       0.79292    1.03381    1.00846   1.00
C3       0.70775    0.98452    1.03155   1.00
C3       0.79184    0.96557    0.99173   1.00
C3a      0.70737    1.01587    0.96813   1.00
C2       0.85517    0.99865    0.99933   1.00
C2       0.64483    1.00115    1.00091   1.00
C3       0.83434    1.03306    1.00805   1.00
C3       0.66641    0.98515    1.03199   1.00
C3       0.83320    0.96494    0.99119   1.00
C3       0.66585    1.01633    0.96920   1.00
H1       0.77808    1.06085    1.01529   1.00
H1       0.72315    0.97215    1.05622   1.00
H1       0.85032    1.05952    1.01454   1.00
H1       0.65105    0.97312    1.05684   1.00
H1       0.84821    0.93806    0.98411   1.00
H1       0.64957    1.02833    0.94493   1.00
C5       0.72761    1.03186    0.93226   1.00
H1       0.77599    0.93920    0.98454   1.00
H2       0.70646    1.04648    0.91249   1.00
H2       0.74897    1.05454    0.94122   1.00
N1       0.74708    1.00056    0.91069   1.00
C6       0.72988    0.96875    0.89532   1.00
C6       0.78540    0.99852    0.90227   1.00
C6       0.75757    0.94590    0.87716   1.00
C6       0.79289    0.96483    0.88160   1.00
H3       0.69901    0.96231    0.89735   1.00
H3       0.80691    1.01995    0.91101   1.00
H3       0.75259    0.91852    0.86231   1.00
H3       0.82097    0.95514    0.87099   1.00
C4       1.22915    1.00005    0.99991   1.00
C4       1.27085    0.99995    1.00009   1.00
C3       1.20708    1.03381    0.99154   1.00
C3       1.29225    0.98452    0.96845   1.00
C3       1.20816    0.96557    1.00827   1.00
C3a      1.29263    1.01587    1.03187   1.00
C2       1.14483    0.99865    1.00067   1.00
C2       1.35517    1.00115    0.99909   1.00
C3       1.16566    1.03306    0.99195   1.00
C3       1.33359    0.98515    0.96801   1.00
C3       1.16680    0.96494    1.00881   1.00
C3       1.33415    1.01633    1.03080   1.00
H1       1.22192    1.06085    0.98471   1.00
H1       1.27685    0.97215    0.94378   1.00
H1       1.14968    1.05952    0.98546   1.00
H1       1.34895    0.97312    0.94316   1.00
H1       1.15179    0.93806    1.01589   1.00
H1       1.35043    1.02833    1.05507   1.00
C5       1.27239    1.03186    1.06774   1.00
H1       1.22401    0.93920    1.01546   1.00
H2       1.29354    1.04648    1.08751   1.00
H2       1.25103    1.05454    1.05878   1.00
N1       1.25292    1.00056    1.08931   1.00
C6       1.27012    0.96875    1.10468   1.00
C6       1.21460    0.99852    1.09773   1.00
C6       1.24243    0.94590    1.12284   1.00
C6       1.20711    0.96483    1.11840   1.00
H3       1.30099    0.96231    1.10265   1.00
H3       1.19309    1.01995    1.08899   1.00
H3       1.24741    0.91852    1.13769   1.00
H3       1.17903    0.95514    1.12901   1.00
C4       1.00009    0.77085    1.00005   1.00
C4       0.99991    0.72915    0.99995   1.00
C3       1.00846    0.79292    1.03381   1.00
C3       1.03155    0.70775    0.98452   1.00
C3       0.99173    0.79184    0.96557   1.00
C3a      0.96813    0.70737    1.01587   1.00
C2       0.99933    0.85517    0.99865   1.00
C2       1.00091    0.64483    1.00115   1.00
C3       1.00805    0.83434    1.03306   1.00
C3       1.03199    0.66641    0.98515   1.00
C3       0.99119    0.83320    0.96494   1.00
C3       0.96920    0.66585    1.01633   1.00
H1       1.01529    0.77808    1.06085   1.00
H1       1.05622    0.72315    0.97215   1.00
H1       1.01454    0.85032    1.05952   1.00
H1       1.05684    0.65105    0.97312   1.00
H1       0.98411    0.84821    0.93806   1.00
H1       0.94493    0.64957    1.02833   1.00
C5       0.93226    0.72761    1.03186   1.00
H1       0.98454    0.77599    0.93920   1.00
H2       0.91249    0.70646    1.04648   1.00
H2       0.94122    0.74897    1.05454   1.00
N1       0.91069    0.74708    1.00056   1.00
C6       0.89532    0.72988    0.96875   1.00
C6       0.90227    0.78540    0.99852   1.00
C6       0.87716    0.75757    0.94590   1.00
C6       0.88160    0.79289    0.96483   1.00
H3       0.89735    0.69901    0.96231   1.00
H3       0.91101    0.80691    1.01995   1.00
H3       0.86231    0.75259    0.91852   1.00
H3       0.87099    0.82097    0.95514   1.00
C4       1.00005    1.00009    0.77085   1.00
C4       0.99995    0.99991    0.72915   1.00
C3       1.03381    1.00846    0.79292   1.00
C3       0.98452    1.03155    0.70775   1.00
C3       0.96557    0.99173    0.79184   1.00
C3a      1.01587    0.96813    0.70737   1.00
C2       0.99865    0.99933    0.85517   1.00
C2       1.00115    1.00091    0.64483   1.00
C3       1.03306    1.00805    0.83434   1.00
C3       0.98515    1.03199    0.66641   1.00
C3       0.96494    0.99119    0.83320   1.00
C3       1.01633    0.96920    0.66585   1.00
H1       1.06085    1.01529    0.77808   1.00
H1       0.97215    1.05622    0.72315   1.00
H1       1.05952    1.01454    0.85032   1.00
H1       0.97312    1.05684    0.65105   1.00
H1       0.93806    0.98411    0.84821   1.00
H1       1.02833    0.94493    0.64957   1.00
C5       1.03186    0.93226    0.72761   1.00
H1       0.93920    0.98454    0.77599   1.00
H2       1.04648    0.91249    0.70646   1.00
H2       1.05454    0.94122    0.74897   1.00
N1       1.00056    0.91069    0.74708   1.00
C6       0.96875    0.89532    0.72988   1.00
C6       0.99852    0.90227    0.78540   1.00
C6       0.94590    0.87716    0.75757   1.00
C6       0.96483    0.88160    0.79289   1.00
H3       0.96231    0.89735    0.69901   1.00
H3       1.01995    0.91101    0.80691   1.00
H3       0.91852    0.86231    0.75259   1.00
H3       0.95514    0.87099    0.82097   1.00
C4       0.50005    0.49991    1.22915   1.00
C4       0.49995    0.50009    1.27085   1.00
C3       0.53381    0.49154    1.20708   1.00
C3       0.48452    0.46845    1.29225   1.00
C3       0.46557    0.50827    1.20816   1.00
C3a      0.51587    0.53187    1.29263   1.00
C2       0.49865    0.50067    1.14483   1.00
C2       0.50115    0.49909    1.35517   1.00
C3       0.53306    0.49195    1.16566   1.00
C3       0.48515    0.46801    1.33359   1.00
C3       0.46494    0.50881    1.16680   1.00
C3       0.51633    0.53080    1.33415   1.00
H1       0.56085    0.48471    1.22192   1.00
H1       0.47215    0.44378    1.27685   1.00
H1       0.55952    0.48546    1.14968   1.00
H1       0.47312    0.44316    1.34895   1.00
H1       0.43806    0.51589    1.15179   1.00
H1       0.52833    0.55507    1.35043   1.00
C5       0.53186    0.56774    1.27239   1.00
H1       0.43920    0.51546    1.22401   1.00
H2       0.54648    0.58751    1.29354   1.00
H2       0.55454    0.55878    1.25103   1.00
N1       0.50056    0.58931    1.25292   1.00
C6       0.46875    0.60468    1.27012   1.00
C6       0.49852    0.59773    1.21460   1.00
C6       0.44590    0.62284    1.24243   1.00
C6       0.46483    0.61840    1.20711   1.00
H3       0.46231    0.60265    1.30099   1.00
H3       0.51995    0.58899    1.19309   1.00
H3       0.41852    0.63769    1.24741   1.00
H3       0.45514    0.62901    1.17903   1.00
C4       0.49991    0.72915    1.00005   1.00
C4       0.50009    0.77085    0.99995   1.00
C3       0.49154    0.70708    1.03381   1.00
C3       0.46845    0.79225    0.98452   1.00
C3       0.50827    0.70816    0.96557   1.00
C3a      0.53187    0.79263    1.01587   1.00
C2       0.50067    0.64483    0.99865   1.00
C2       0.49909    0.85517    1.00115   1.00
C3       0.49195    0.66566    1.03306   1.00
C3       0.46801    0.83359    0.98515   1.00
C3       0.50881    0.66680    0.96494   1.00
C3       0.53080    0.83415    1.01633   1.00
H1       0.48471    0.72192    1.06085   1.00
H1       0.44378    0.77685    0.97215   1.00
H1       0.48546    0.64968    1.05952   1.00
H1       0.44316    0.84895    0.97312   1.00
H1       0.51589    0.65179    0.93806   1.00
H1       0.55507    0.85043    1.02833   1.00
C5       0.56774    0.77239    1.03186   1.00
H1       0.51546    0.72401    0.93920   1.00
H2       0.58751    0.79354    1.04648   1.00
H2       0.55878    0.75103    1.05454   1.00
N1       0.58931    0.75292    1.00056   1.00
C6       0.60468    0.77012    0.96875   1.00
C6       0.59773    0.71460    0.99852   1.00
C6       0.62284    0.74243    0.94590   1.00
C6       0.61840    0.70711    0.96483   1.00
H3       0.60265    0.80099    0.96231   1.00
H3       0.58899    0.69309    1.01995   1.00
H3       0.63769    0.74741    0.91852   1.00
H3       0.62901    0.67903    0.95514   1.00
C4       0.27085    0.50005    1.00009   1.00
C4       0.22915    0.49995    0.99991   1.00
C3       0.29292    0.53381    1.00846   1.00
C3       0.20775    0.48452    1.03155   1.00
C3       0.29184    0.46557    0.99173   1.00
C3a      0.20737    0.51587    0.96813   1.00
C2       0.35517    0.49865    0.99933   1.00
C2       0.14483    0.50115    1.00091   1.00
C3       0.33434    0.53306    1.00805   1.00
C3       0.16641    0.48515    1.03199   1.00
C3       0.33320    0.46494    0.99119   1.00
C3       0.16585    0.51633    0.96920   1.00
H1       0.27808    0.56085    1.01529   1.00
H1       0.22315    0.47215    1.05622   1.00
H1       0.35032    0.55952    1.01454   1.00
H1       0.15105    0.47312    1.05684   1.00
H1       0.34821    0.43806    0.98411   1.00
H1       0.14957    0.52833    0.94493   1.00
C5       0.22761    0.53186    0.93226   1.00
H1       0.27599    0.43920    0.98454   1.00
H2       0.20646    0.54648    0.91249   1.00
H2       0.24897    0.55454    0.94122   1.00
N1       0.24708    0.50056    0.91069   1.00
C6       0.22988    0.46875    0.89532   1.00
C6       0.28540    0.49852    0.90227   1.00
C6       0.25757    0.44590    0.87716   1.00
C6       0.29289    0.46483    0.88160   1.00
H3       0.19901    0.46231    0.89735   1.00
H3       0.30691    0.51995    0.91101   1.00
H3       0.25259    0.41852    0.86231   1.00
H3       0.32097    0.45514    0.87099   1.00
C4       0.72915    0.50005    0.99991   1.00
C4       0.77085    0.49995    1.00009   1.00
C3       0.70708    0.53381    0.99154   1.00
C3       0.79225    0.48452    0.96845   1.00
C3       0.70816    0.46557    1.00827   1.00
C3a      0.79263    0.51587    1.03187   1.00
C2       0.64483    0.49865    1.00067   1.00
C2       0.85517    0.50115    0.99909   1.00
C3       0.66566    0.53306    0.99195   1.00
C3       0.83359    0.48515    0.96801   1.00
C3       0.66680    0.46494    1.00881   1.00
C3       0.83415    0.51633    1.03080   1.00
H1       0.72192    0.56085    0.98471   1.00
H1       0.77685    0.47215    0.94378   1.00
H1       0.64968    0.55952    0.98546   1.00
H1       0.84895    0.47312    0.94316   1.00
H1       0.65179    0.43806    1.01589   1.00
H1       0.85043    0.52833    1.05507   1.00
C5       0.77239    0.53186    1.06774   1.00
H1       0.72401    0.43920    1.01546   1.00
H2       0.79354    0.54648    1.08751   1.00
H2       0.75103    0.55454    1.05878   1.00
N1       0.75292    0.50056    1.08931   1.00
C6       0.77012    0.46875    1.10468   1.00
C6       0.71460    0.49852    1.09773   1.00
C6       0.74243    0.44590    1.12284   1.00
C6       0.70711    0.46483    1.11840   1.00
H3       0.80099    0.46231    1.10265   1.00
H3       0.69309    0.51995    1.08899   1.00
H3       0.74741    0.41852    1.13769   1.00
H3       0.67903    0.45514    1.12901   1.00
C4       0.50009    0.27085    1.00005   1.00
C4       0.49991    0.22915    0.99995   1.00
C3       0.50846    0.29292    1.03381   1.00
C3       0.53155    0.20775    0.98452   1.00
C3       0.49173    0.29184    0.96557   1.00
C3a      0.46813    0.20737    1.01587   1.00
C2       0.49933    0.35517    0.99865   1.00
C2       0.50091    0.14483    1.00115   1.00
C3       0.50805    0.33434    1.03306   1.00
C3       0.53199    0.16641    0.98515   1.00
C3       0.49119    0.33320    0.96494   1.00
C3       0.46920    0.16585    1.01633   1.00
H1       0.51529    0.27808    1.06085   1.00
H1       0.55622    0.22315    0.97215   1.00
H1       0.51454    0.35032    1.05952   1.00
H1       0.55684    0.15105    0.97312   1.00
H1       0.48411    0.34821    0.93806   1.00
H1       0.44493    0.14957    1.02833   1.00
C5       0.43226    0.22761    1.03186   1.00
H1       0.48454    0.27599    0.93920   1.00
H2       0.41249    0.20646    1.04648   1.00
H2       0.44122    0.24897    1.05454   1.00
N1       0.41069    0.24708    1.00056   1.00
C6       0.39532    0.22988    0.96875   1.00
C6       0.40227    0.28540    0.99852   1.00
C6       0.37716    0.25757    0.94590   1.00
C6       0.38160    0.29289    0.96483   1.00
H3       0.39735    0.19901    0.96231   1.00
H3       0.41101    0.30691    1.01995   1.00
H3       0.36231    0.25259    0.91852   1.00
H3       0.37099    0.32097    0.95514   1.00
C4       0.50005    0.50009    0.77085   1.00
C4       0.49995    0.49991    0.72915   1.00
C3       0.53381    0.50846    0.79292   1.00
C3       0.48452    0.53155    0.70775   1.00
C3       0.46557    0.49173    0.79184   1.00
C3a      0.51587    0.46813    0.70737   1.00
C2       0.49865    0.49933    0.85517   1.00
C2       0.50115    0.50091    0.64483   1.00
C3       0.53306    0.50805    0.83434   1.00
C3       0.48515    0.53199    0.66641   1.00
C3       0.46494    0.49119    0.83320   1.00
C3       0.51633    0.46920    0.66585   1.00
H1       0.56085    0.51529    0.77808   1.00
H1       0.47215    0.55622    0.72315   1.00
H1       0.55952    0.51454    0.85032   1.00
H1       0.47312    0.55684    0.65105   1.00
H1       0.43806    0.48411    0.84821   1.00
H1       0.52833    0.44493    0.64957   1.00
C5       0.53186    0.43226    0.72761   1.00
H1       0.43920    0.48454    0.77599   1.00
H2       0.54648    0.41249    0.70646   1.00
H2       0.55454    0.44122    0.74897   1.00
N1       0.50056    0.41069    0.74708   1.00
C6       0.46875    0.39532    0.72988   1.00
C6       0.49852    0.40227    0.78540   1.00
C6       0.44590    0.37716    0.75757   1.00
C6       0.46483    0.38160    0.79289   1.00
H3       0.46231    0.39735    0.69901   1.00
H3       0.51995    0.41101    0.80691   1.00
H3       0.41852    0.36231    0.75259   1.00
H3       0.45514    0.37099    0.82097   1.00
C4       0.50005    0.99991    0.72915   1.00
C4       0.49995    1.00009    0.77085   1.00
C3       0.53381    0.99154    0.70708   1.00
C3       0.48452    0.96845    0.79225   1.00
C3       0.46557    1.00827    0.70816   1.00
C3a      0.51587    1.03187    0.79263   1.00
C2       0.49865    1.00067    0.64483   1.00
C2       0.50115    0.99909    0.85517   1.00
C3       0.53306    0.99195    0.66566   1.00
C3       0.48515    0.96801    0.83359   1.00
C3       0.46494    1.00881    0.66680   1.00
C3       0.51633    1.03080    0.83415   1.00
H1       0.56085    0.98471    0.72192   1.00
H1       0.47215    0.94378    0.77685   1.00
H1       0.55952    0.98546    0.64968   1.00
H1       0.47312    0.94316    0.84895   1.00
H1       0.43806    1.01589    0.65179   1.00
H1       0.52833    1.05507    0.85043   1.00
C5       0.53186    1.06774    0.77239   1.00
H1       0.43920    1.01546    0.72401   1.00
H2       0.54648    1.08751    0.79354   1.00
H2       0.55454    1.05878    0.75103   1.00
N1       0.50056    1.08931    0.75292   1.00
C6       0.46875    1.10468    0.77012   1.00
C6       0.49852    1.09773    0.71460   1.00
C6       0.44590    1.12284    0.74243   1.00
C6       0.46483    1.11840    0.70711   1.00
H3       0.46231    1.10265    0.80099   1.00
H3       0.51995    1.08899    0.69309   1.00
H3       0.41852    1.13769    0.74741   1.00
H3       0.45514    1.12901    0.67903   1.00
C4       0.49991    1.22915    0.50005   1.00
C4       0.50009    1.27085    0.49995   1.00
C3       0.49154    1.20708    0.53381   1.00
C3       0.46845    1.29225    0.48452   1.00
C3       0.50827    1.20816    0.46557   1.00
C3a      0.53187    1.29263    0.51587   1.00
C2       0.50067    1.14483    0.49865   1.00
C2       0.49909    1.35517    0.50115   1.00
C3       0.49195    1.16566    0.53306   1.00
C3       0.46801    1.33359    0.48515   1.00
C3       0.50881    1.16680    0.46494   1.00
C3       0.53080    1.33415    0.51633   1.00
H1       0.48471    1.22192    0.56085   1.00
H1       0.44378    1.27685    0.47215   1.00
H1       0.48546    1.14968    0.55952   1.00
H1       0.44316    1.34895    0.47312   1.00
H1       0.51589    1.15179    0.43806   1.00
H1       0.55507    1.35043    0.52833   1.00
C5       0.56774    1.27239    0.53186   1.00
H1       0.51546    1.22401    0.43920   1.00
H2       0.58751    1.29354    0.54648   1.00
H2       0.55878    1.25103    0.55454   1.00
N1       0.58931    1.25292    0.50056   1.00
C6       0.60468    1.27012    0.46875   1.00
C6       0.59773    1.21460    0.49852   1.00
C6       0.62284    1.24243    0.44590   1.00
C6       0.61840    1.20711    0.46483   1.00
H3       0.60265    1.30099    0.46231   1.00
H3       0.58899    1.19309    0.51995   1.00
H3       0.63769    1.24741    0.41852   1.00
H3       0.62901    1.17903    0.45514   1.00
C4       0.27085    1.00005    0.50009   1.00
C4       0.22915    0.99995    0.49991   1.00
C3       0.29292    1.03381    0.50846   1.00
C3       0.20775    0.98452    0.53155   1.00
C3       0.29184    0.96557    0.49173   1.00
C3a      0.20737    1.01587    0.46813   1.00
C2       0.35517    0.99865    0.49933   1.00
C2       0.14483    1.00115    0.50091   1.00
C3       0.33434    1.03306    0.50805   1.00
C3       0.16641    0.98515    0.53199   1.00
C3       0.33320    0.96494    0.49119   1.00
C3       0.16585    1.01633    0.46920   1.00
H1       0.27808    1.06085    0.51529   1.00
H1       0.22315    0.97215    0.55622   1.00
H1       0.35032    1.05952    0.51454   1.00
H1       0.15105    0.97312    0.55684   1.00
H1       0.34821    0.93806    0.48411   1.00
H1       0.14957    1.02833    0.44493   1.00
C5       0.22761    1.03186    0.43226   1.00
H1       0.27599    0.93920    0.48454   1.00
H2       0.20646    1.04648    0.41249   1.00
H2       0.24897    1.05454    0.44122   1.00
N1       0.24708    1.00056    0.41069   1.00
C6       0.22988    0.96875    0.39532   1.00
C6       0.28540    0.99852    0.40227   1.00
C6       0.25757    0.94590    0.37716   1.00
C6       0.29289    0.96483    0.38160   1.00
H3       0.19901    0.96231    0.39735   1.00
H3       0.30691    1.01995    0.41101   1.00
H3       0.25259    0.91852    0.36231   1.00
H3       0.32097    0.95514    0.37099   1.00
C4       0.72915    1.00005    0.49991   1.00
C4       0.77085    0.99995    0.50009   1.00
C3       0.70708    1.03381    0.49154   1.00
C3       0.79225    0.98452    0.46845   1.00
C3       0.70816    0.96557    0.50827   1.00
C3a      0.79263    1.01587    0.53187   1.00
C2       0.64483    0.99865    0.50067   1.00
C2       0.85517    1.00115    0.49909   1.00
C3       0.66566    1.03306    0.49195   1.00
C3       0.83359    0.98515    0.46801   1.00
C3       0.66680    0.96494    0.50881   1.00
C3       0.83415    1.01633    0.53080   1.00
H1       0.72192    1.06085    0.48471   1.00
H1       0.77685    0.97215    0.44378   1.00
H1       0.64968    1.05952    0.48546   1.00
H1       0.84895    0.97312    0.44316   1.00
H1       0.65179    0.93806    0.51589   1.00
H1       0.85043    1.02833    0.55507   1.00
C5       0.77239    1.03186    0.56774   1.00
H1       0.72401    0.93920    0.51546   1.00
H2       0.79354    1.04648    0.58751   1.00
H2       0.75103    1.05454    0.55878   1.00
N1       0.75292    1.00056    0.58931   1.00
C6       0.77012    0.96875    0.60468   1.00
C6       0.71460    0.99852    0.59773   1.00
C6       0.74243    0.94590    0.62284   1.00
C6       0.70711    0.96483    0.61840   1.00
H3       0.80099    0.96231    0.60265   1.00
H3       0.69309    1.01995    0.58899   1.00
H3       0.74741    0.91852    0.63769   1.00
H3       0.67903    0.95514    0.62901   1.00
C4       0.50009    0.77085    0.50005   1.00
C4       0.49991    0.72915    0.49995   1.00
C3       0.50846    0.79292    0.53381   1.00
C3       0.53155    0.70775    0.48452   1.00
C3       0.49173    0.79184    0.46557   1.00
C3a      0.46813    0.70737    0.51587   1.00
C2       0.49933    0.85517    0.49865   1.00
C2       0.50091    0.64483    0.50115   1.00
C3       0.50805    0.83434    0.53306   1.00
C3       0.53199    0.66641    0.48515   1.00
C3       0.49119    0.83320    0.46494   1.00
C3       0.46920    0.66585    0.51633   1.00
H1       0.51529    0.77808    0.56085   1.00
H1       0.55622    0.72315    0.47215   1.00
H1       0.51454    0.85032    0.55952   1.00
H1       0.55684    0.65105    0.47312   1.00
H1       0.48411    0.84821    0.43806   1.00
H1       0.44493    0.64957    0.52833   1.00
C5       0.43226    0.72761    0.53186   1.00
H1       0.48454    0.77599    0.43920   1.00
H2       0.41249    0.70646    0.54648   1.00
H2       0.44122    0.74897    0.55454   1.00
N1       0.41069    0.74708    0.50056   1.00
C6       0.39532    0.72988    0.46875   1.00
C6       0.40227    0.78540    0.49852   1.00
C6       0.37716    0.75757    0.44590   1.00
C6       0.38160    0.79289    0.46483   1.00
H3       0.39735    0.69901    0.46231   1.00
H3       0.41101    0.80691    0.51995   1.00
H3       0.36231    0.75259    0.41852   1.00
H3       0.37099    0.82097    0.45514   1.00
C4       0.50005    1.00009    0.27085   1.00
C4       0.49995    0.99991    0.22915   1.00
C3       0.53381    1.00846    0.29292   1.00
C3       0.48452    1.03155    0.20775   1.00
C3       0.46557    0.99173    0.29184   1.00
C3a      0.51587    0.96813    0.20737   1.00
C2       0.49865    0.99933    0.35517   1.00
C2       0.50115    1.00091    0.14483   1.00
C3       0.53306    1.00805    0.33434   1.00
C3       0.48515    1.03199    0.16641   1.00
C3       0.46494    0.99119    0.33320   1.00
C3       0.51633    0.96920    0.16585   1.00
H1       0.56085    1.01529    0.27808   1.00
H1       0.47215    1.05622    0.22315   1.00
H1       0.55952    1.01454    0.35032   1.00
H1       0.47312    1.05684    0.15105   1.00
H1       0.43806    0.98411    0.34821   1.00
H1       0.52833    0.94493    0.14957   1.00
C5       0.53186    0.93226    0.22761   1.00
H1       0.43920    0.98454    0.27599   1.00
H2       0.54648    0.91249    0.20646   1.00
H2       0.55454    0.94122    0.24897   1.00
N1       0.50056    0.91069    0.24708   1.00
C6       0.46875    0.89532    0.22988   1.00
C6       0.49852    0.90227    0.28540   1.00
C6       0.44590    0.87716    0.25757   1.00
C6       0.46483    0.88160    0.29289   1.00
H3       0.46231    0.89735    0.19901   1.00
H3       0.51995    0.91101    0.30691   1.00
H3       0.41852    0.86231    0.25259   1.00
H3       0.45514    0.87099    0.32097   1.00
C4       1.00005    0.49991    0.72915   1.00
C4       0.99995    0.50009    0.77085   1.00
C3       1.03381    0.49154    0.70708   1.00
C3       0.98452    0.46845    0.79225   1.00
C3       0.96557    0.50827    0.70816   1.00
C3a      1.01587    0.53187    0.79263   1.00
C2       0.99865    0.50067    0.64483   1.00
C2       1.00115    0.49909    0.85517   1.00
C3       1.03306    0.49195    0.66566   1.00
C3       0.98515    0.46801    0.83359   1.00
C3       0.96494    0.50881    0.66680   1.00
C3       1.01633    0.53080    0.83415   1.00
H1       1.06085    0.48471    0.72192   1.00
H1       0.97215    0.44378    0.77685   1.00
H1       1.05952    0.48546    0.64968   1.00
H1       0.97312    0.44316    0.84895   1.00
H1       0.93806    0.51589    0.65179   1.00
H1       1.02833    0.55507    0.85043   1.00
C5       1.03186    0.56774    0.77239   1.00
H1       0.93920    0.51546    0.72401   1.00
H2       1.04648    0.58751    0.79354   1.00
H2       1.05454    0.55878    0.75103   1.00
N1       1.00056    0.58931    0.75292   1.00
C6       0.96875    0.60468    0.77012   1.00
C6       0.99852    0.59773    0.71460   1.00
C6       0.94590    0.62284    0.74243   1.00
C6       0.96483    0.61840    0.70711   1.00
H3       0.96231    0.60265    0.80099   1.00
H3       1.01995    0.58899    0.69309   1.00
H3       0.91852    0.63769    0.74741   1.00
H3       0.95514    0.62901    0.67903   1.00
C4       0.99991    0.72915    0.50005   1.00
C4       1.00009    0.77085    0.49995   1.00
C3       0.99154    0.70708    0.53381   1.00
C3       0.96845    0.79225    0.48452   1.00
C3       1.00827    0.70816    0.46557   1.00
C3a      1.03187    0.79263    0.51587   1.00
C2       1.00067    0.64483    0.49865   1.00
C2       0.99909    0.85517    0.50115   1.00
C3       0.99195    0.66566    0.53306   1.00
C3       0.96801    0.83359    0.48515   1.00
C3       1.00881    0.66680    0.46494   1.00
C3       1.03080    0.83415    0.51633   1.00
H1       0.98471    0.72192    0.56085   1.00
H1       0.94378    0.77685    0.47215   1.00
H1       0.98546    0.64968    0.55952   1.00
H1       0.94316    0.84895    0.47312   1.00
H1       1.01589    0.65179    0.43806   1.00
H1       1.05507    0.85043    0.52833   1.00
C5       1.06774    0.77239    0.53186   1.00
H1       1.01546    0.72401    0.43920   1.00
H2       1.08751    0.79354    0.54648   1.00
H2       1.05878    0.75103    0.55454   1.00
N1       1.08931    0.75292    0.50056   1.00
C6       1.10468    0.77012    0.46875   1.00
C6       1.09773    0.71460    0.49852   1.00
C6       1.12284    0.74243    0.44590   1.00
C6       1.11840    0.70711    0.46483   1.00
H3       1.10265    0.80099    0.46231   1.00
H3       1.08899    0.69309    0.51995   1.00
H3       1.13769    0.74741    0.41852   1.00
H3       1.12901    0.67903    0.45514   1.00
C4       0.77085    0.50005    0.50009   1.00
C4       0.72915    0.49995    0.49991   1.00
C3       0.79292    0.53381    0.50846   1.00
C3       0.70775    0.48452    0.53155   1.00
C3       0.79184    0.46557    0.49173   1.00
C3a      0.70737    0.51587    0.46813   1.00
C2       0.85517    0.49865    0.49933   1.00
C2       0.64483    0.50115    0.50091   1.00
C3       0.83434    0.53306    0.50805   1.00
C3       0.66641    0.48515    0.53199   1.00
C3       0.83320    0.46494    0.49119   1.00
C3       0.66585    0.51633    0.46920   1.00
H1       0.77808    0.56085    0.51529   1.00
H1       0.72315    0.47215    0.55622   1.00
H1       0.85032    0.55952    0.51454   1.00
H1       0.65105    0.47312    0.55684   1.00
H1       0.84821    0.43806    0.48411   1.00
H1       0.64957    0.52833    0.44493   1.00
C5       0.72761    0.53186    0.43226   1.00
H1       0.77599    0.43920    0.48454   1.00
H2       0.70646    0.54648    0.41249   1.00
H2       0.74897    0.55454    0.44122   1.00
N1       0.74708    0.50056    0.41069   1.00
C6       0.72988    0.46875    0.39532   1.00
C6       0.78540    0.49852    0.40227   1.00
C6       0.75757    0.44590    0.37716   1.00
C6       0.79289    0.46483    0.38160   1.00
H3       0.69901    0.46231    0.39735   1.00
H3       0.80691    0.51995    0.41101   1.00
H3       0.75259    0.41852    0.36231   1.00
H3       0.82097    0.45514    0.37099   1.00
C4       1.22915    0.50005    0.49991   1.00
C4       1.27085    0.49995    0.50009   1.00
C3       1.20708    0.53381    0.49154   1.00
C3       1.29225    0.48452    0.46845   1.00
C3       1.20816    0.46557    0.50827   1.00
C3a      1.29263    0.51587    0.53187   1.00
C2       1.14483    0.49865    0.50067   1.00
C2       1.35517    0.50115    0.49909   1.00
C3       1.16566    0.53306    0.49195   1.00
C3       1.33359    0.48515    0.46801   1.00
C3       1.16680    0.46494    0.50881   1.00
C3       1.33415    0.51633    0.53080   1.00
H1       1.22192    0.56085    0.48471   1.00
H1       1.27685    0.47215    0.44378   1.00
H1       1.14968    0.55952    0.48546   1.00
H1       1.34895    0.47312    0.44316   1.00
H1       1.15179    0.43806    0.51589   1.00
H1       1.35043    0.52833    0.55507   1.00
C5       1.27239    0.53186    0.56774   1.00
H1       1.22401    0.43920    0.51546   1.00
H2       1.29354    0.54648    0.58751   1.00
H2       1.25103    0.55454    0.55878   1.00
N1       1.25292    0.50056    0.58931   1.00
C6       1.27012    0.46875    0.60468   1.00
C6       1.21460    0.49852    0.59773   1.00
C6       1.24243    0.44590    0.62284   1.00
C6       1.20711    0.46483    0.61840   1.00
H3       1.30099    0.46231    0.60265   1.00
H3       1.19309    0.51995    0.58899   1.00
H3       1.24741    0.41852    0.63769   1.00
H3       1.17903    0.45514    0.62901   1.00
C4       1.00009    0.27085    0.50005   1.00
C4       0.99991    0.22915    0.49995   1.00
C3       1.00846    0.29292    0.53381   1.00
C3       1.03155    0.20775    0.48452   1.00
C3       0.99173    0.29184    0.46557   1.00
C3a      0.96813    0.20737    0.51587   1.00
C2       0.99933    0.35517    0.49865   1.00
C2       1.00091    0.14483    0.50115   1.00
C3       1.00805    0.33434    0.53306   1.00
C3       1.03199    0.16641    0.48515   1.00
C3       0.99119    0.33320    0.46494   1.00
C3       0.96920    0.16585    0.51633   1.00
H1       1.01529    0.27808    0.56085   1.00
H1       1.05622    0.22315    0.47215   1.00
H1       1.01454    0.35032    0.55952   1.00
H1       1.05684    0.15105    0.47312   1.00
H1       0.98411    0.34821    0.43806   1.00
H1       0.94493    0.14957    0.52833   1.00
C5       0.93226    0.22761    0.53186   1.00
H1       0.98454    0.27599    0.43920   1.00
H2       0.91249    0.20646    0.54648   1.00
H2       0.94122    0.24897    0.55454   1.00
N1       0.91069    0.24708    0.50056   1.00
C6       0.89532    0.22988    0.46875   1.00
C6       0.90227    0.28540    0.49852   1.00
C6       0.87716    0.25757    0.44590   1.00
C6       0.88160    0.29289    0.46483   1.00
H3       0.89735    0.19901    0.46231   1.00
H3       0.91101    0.30691    0.51995   1.00
H3       0.86231    0.25259    0.41852   1.00
H3       0.87099    0.32097    0.45514   1.00
C4       1.00005    0.50009    0.27085   1.00
C4       0.99995    0.49991    0.22915   1.00
C3       1.03381    0.50846    0.29292   1.00
C3       0.98452    0.53155    0.20775   1.00
C3       0.96557    0.49173    0.29184   1.00
C3a      1.01587    0.46813    0.20737   1.00
C2       0.99865    0.49933    0.35517   1.00
C2       1.00115    0.50091    0.14483   1.00
C3       1.03306    0.50805    0.33434   1.00
C3       0.98515    0.53199    0.16641   1.00
C3       0.96494    0.49119    0.33320   1.00
C3       1.01633    0.46920    0.16585   1.00
H1       1.06085    0.51529    0.27808   1.00
H1       0.97215    0.55622    0.22315   1.00
H1       1.05952    0.51454    0.35032   1.00
H1       0.97312    0.55684    0.15105   1.00
H1       0.93806    0.48411    0.34821   1.00
H1       1.02833    0.44493    0.14957   1.00
C5       1.03186    0.43226    0.22761   1.00
H1       0.93920    0.48454    0.27599   1.00
H2       1.04648    0.41249    0.20646   1.00
H2       1.05454    0.44122    0.24897   1.00
N1       1.00056    0.41069    0.24708   1.00
C6       0.96875    0.39532    0.22988   1.00
C6       0.99852    0.40227    0.28540   1.00
C6       0.94590    0.37716    0.25757   1.00
C6       0.96483    0.38160    0.29289   1.00
H3       0.96231    0.39735    0.19901   1.00
H3       1.01995    0.41101    0.30691   1.00
H3       0.91852    0.36231    0.25259   1.00
H3       0.95514    0.37099    0.32097   1.00
