data_IRMOF10_SG202_interpen_Ligand7lp_label_k.

_audit_creation_method             'generated by an auxiliary program of Tobunporous'

_symmetry_space_group_name_H-M     'P 1'
_symmetry_Int_Tables_number        1
_symmetry_cell_setting             triclinic

_cell_length_a                    34.2800
_cell_length_b                    34.2800
_cell_length_c                    34.2800
_cell_angle_alpha                 90.0000
_cell_angle_beta                  90.0000
_cell_angle_gamma                 90.0000

loop_
_atom_site_label
_atom_site_fract_x
_atom_site_fract_y
_atom_site_fract_z
_atom_site_occupancy
O1       0.75000    0.75000    0.75000   1.00
Zn1      0.71720    0.78280    0.78280   1.00
Zn1      0.78280    0.71720    0.78280   1.00
Zn1      0.78280    0.78280    0.71720   1.00
Zn1      0.71720    0.71720    0.71720   1.00
O2       0.72650    0.77350    0.83820   1.00
O2       0.72650    0.83820    0.77350   1.00
O2       0.66180    0.77350    0.77350   1.00
O2       0.77350    0.72650    0.83820   1.00
O2       0.83820    0.72650    0.77350   1.00
O2       0.77350    0.66180    0.77350   1.00
O2       0.77350    0.83820    0.72650   1.00
O2       0.83820    0.77350    0.72650   1.00
O2       0.77350    0.77350    0.66180   1.00
O2       0.66180    0.72650    0.72650   1.00
O2       0.72650    0.66180    0.72650   1.00
O2       0.72650    0.72650    0.66180   1.00
C1       0.75000    0.75000    0.85520   1.00
C1       0.75000    0.85520    0.75000   1.00
C1       0.64480    0.75000    0.75000   1.00
C1       0.85520    0.75000    0.75000   1.00
C1       0.75000    0.64480    0.75000   1.00
C1       0.75000    0.75000    0.64480   1.00
O1       0.25000    0.25000    0.75000   1.00
Zn1      0.21720    0.28280    0.78280   1.00
Zn1      0.28280    0.21720    0.78280   1.00
Zn1      0.28280    0.28280    0.71720   1.00
Zn1      0.21720    0.21720    0.71720   1.00
O2       0.22650    0.27350    0.83820   1.00
O2       0.22650    0.33820    0.77350   1.00
O2       0.16180    0.27350    0.77350   1.00
O2       0.27350    0.22650    0.83820   1.00
O2       0.33820    0.22650    0.77350   1.00
O2       0.27350    0.16180    0.77350   1.00
O2       0.27350    0.33820    0.72650   1.00
O2       0.33820    0.27350    0.72650   1.00
O2       0.27350    0.27350    0.66180   1.00
O2       0.16180    0.22650    0.72650   1.00
O2       0.22650    0.16180    0.72650   1.00
O2       0.22650    0.22650    0.66180   1.00
C1       0.25000    0.25000    0.85520   1.00
C1       0.25000    0.35520    0.75000   1.00
C1       0.14480    0.25000    0.75000   1.00
C1       0.35520    0.25000    0.75000   1.00
C1       0.25000    0.14480    0.75000   1.00
C1       0.25000    0.25000    0.64480   1.00
O1       0.25000    0.75000    0.25000   1.00
Zn1      0.21720    0.78280    0.28280   1.00
Zn1      0.28280    0.71720    0.28280   1.00
Zn1      0.28280    0.78280    0.21720   1.00
Zn1      0.21720    0.71720    0.21720   1.00
O2       0.22650    0.77350    0.33820   1.00
O2       0.22650    0.83820    0.27350   1.00
O2       0.16180    0.77350    0.27350   1.00
O2       0.27350    0.72650    0.33820   1.00
O2       0.33820    0.72650    0.27350   1.00
O2       0.27350    0.66180    0.27350   1.00
O2       0.27350    0.83820    0.22650   1.00
O2       0.33820    0.77350    0.22650   1.00
O2       0.27350    0.77350    0.16180   1.00
O2       0.16180    0.72650    0.22650   1.00
O2       0.22650    0.66180    0.22650   1.00
O2       0.22650    0.72650    0.16180   1.00
C1       0.25000    0.75000    0.35520   1.00
C1       0.25000    0.85520    0.25000   1.00
C1       0.14480    0.75000    0.25000   1.00
C1       0.35520    0.75000    0.25000   1.00
C1       0.25000    0.64480    0.25000   1.00
C1       0.25000    0.75000    0.14480   1.00
O1       0.75000    0.25000    0.25000   1.00
Zn1      0.71720    0.28280    0.28280   1.00
Zn1      0.78280    0.21720    0.28280   1.00
Zn1      0.78280    0.28280    0.21720   1.00
Zn1      0.71720    0.21720    0.21720   1.00
O2       0.72650    0.27350    0.33820   1.00
O2       0.72650    0.33820    0.27350   1.00
O2       0.66180    0.27350    0.27350   1.00
O2       0.77350    0.22650    0.33820   1.00
O2       0.83820    0.22650    0.27350   1.00
O2       0.77350    0.16180    0.27350   1.00
O2       0.77350    0.33820    0.22650   1.00
O2       0.83820    0.27350    0.22650   1.00
O2       0.77350    0.27350    0.16180   1.00
O2       0.66180    0.22650    0.22650   1.00
O2       0.72650    0.16180    0.22650   1.00
O2       0.72650    0.22650    0.16180   1.00
C1       0.75000    0.25000    0.35520   1.00
C1       0.75000    0.35520    0.25000   1.00
C1       0.64480    0.25000    0.25000   1.00
C1       0.85520    0.25000    0.25000   1.00
C1       0.75000    0.14480    0.25000   1.00
C1       0.75000    0.25000    0.14480   1.00
O1       0.25000    0.25000    0.25000   1.00
Zn1      0.28280    0.21720    0.21720   1.00
Zn1      0.21720    0.28280    0.21720   1.00
Zn1      0.21720    0.21720    0.28280   1.00
Zn1      0.28280    0.28280    0.28280   1.00
O2       0.27350    0.22650    0.16180   1.00
O2       0.27350    0.16180    0.22650   1.00
O2       0.33820    0.22650    0.22650   1.00
O2       0.22650    0.27350    0.16180   1.00
O2       0.16180    0.27350    0.22650   1.00
O2       0.22650    0.33820    0.22650   1.00
O2       0.22650    0.16180    0.27350   1.00
O2       0.16180    0.22650    0.27350   1.00
O2       0.22650    0.22650    0.33820   1.00
O2       0.33820    0.27350    0.27350   1.00
O2       0.27350    0.33820    0.27350   1.00
O2       0.27350    0.27350    0.33820   1.00
C1       0.25000    0.25000    0.14480   1.00
C1       0.25000    0.14480    0.25000   1.00
C1       0.35520    0.25000    0.25000   1.00
C1       0.14480    0.25000    0.25000   1.00
C1       0.25000    0.35520    0.25000   1.00
C1       0.25000    0.25000    0.35520   1.00
O1       0.75000    0.75000    0.25000   1.00
Zn1      0.78280    0.71720    0.21720   1.00
Zn1      0.71720    0.78280    0.21720   1.00
Zn1      0.71720    0.71720    0.28280   1.00
Zn1      0.78280    0.78280    0.28280   1.00
O2       0.77350    0.72650    0.16180   1.00
O2       0.77350    0.66180    0.22650   1.00
O2       0.83820    0.72650    0.22650   1.00
O2       0.72650    0.77350    0.16180   1.00
O2       0.66180    0.77350    0.22650   1.00
O2       0.72650    0.83820    0.22650   1.00
O2       0.72650    0.66180    0.27350   1.00
O2       0.66180    0.72650    0.27350   1.00
O2       0.72650    0.72650    0.33820   1.00
O2       0.83820    0.77350    0.27350   1.00
O2       0.77350    0.83820    0.27350   1.00
O2       0.77350    0.77350    0.33820   1.00
C1       0.75000    0.75000    0.14480   1.00
C1       0.75000    0.64480    0.25000   1.00
C1       0.85520    0.75000    0.25000   1.00
C1       0.64480    0.75000    0.25000   1.00
C1       0.75000    0.85520    0.25000   1.00
C1       0.75000    0.75000    0.35520   1.00
O1       0.75000    0.25000    0.75000   1.00
Zn1      0.78280    0.21720    0.71720   1.00
Zn1      0.71720    0.28280    0.71720   1.00
Zn1      0.71720    0.21720    0.78280   1.00
Zn1      0.78280    0.28280    0.78280   1.00
O2       0.77350    0.22650    0.66180   1.00
O2       0.77350    0.16180    0.72650   1.00
O2       0.83820    0.22650    0.72650   1.00
O2       0.72650    0.27350    0.66180   1.00
O2       0.66180    0.27350    0.72650   1.00
O2       0.72650    0.33820    0.72650   1.00
O2       0.72650    0.16180    0.77350   1.00
O2       0.66180    0.22650    0.77350   1.00
O2       0.72650    0.22650    0.83820   1.00
O2       0.83820    0.27350    0.77350   1.00
O2       0.77350    0.33820    0.77350   1.00
O2       0.77350    0.27350    0.83820   1.00
C1       0.75000    0.25000    0.64480   1.00
C1       0.75000    0.14480    0.75000   1.00
C1       0.85520    0.25000    0.75000   1.00
C1       0.64480    0.25000    0.75000   1.00
C1       0.75000    0.35520    0.75000   1.00
C1       0.75000    0.25000    0.85520   1.00
O1       0.25000    0.75000    0.75000   1.00
Zn1      0.28280    0.71720    0.71720   1.00
Zn1      0.21720    0.78280    0.71720   1.00
Zn1      0.21720    0.71720    0.78280   1.00
Zn1      0.28280    0.78280    0.78280   1.00
O2       0.27350    0.72650    0.66180   1.00
O2       0.27350    0.66180    0.72650   1.00
O2       0.33820    0.72650    0.72650   1.00
O2       0.22650    0.77350    0.66180   1.00
O2       0.16180    0.77350    0.72650   1.00
O2       0.22650    0.83820    0.72650   1.00
O2       0.22650    0.66180    0.77350   1.00
O2       0.16180    0.72650    0.77350   1.00
O2       0.22650    0.72650    0.83820   1.00
O2       0.33820    0.77350    0.77350   1.00
O2       0.27350    0.83820    0.77350   1.00
O2       0.27350    0.77350    0.83820   1.00
C1       0.25000    0.75000    0.64480   1.00
C1       0.25000    0.64480    0.75000   1.00
C1       0.35520    0.75000    0.75000   1.00
C1       0.14480    0.75000    0.75000   1.00
C1       0.25000    0.85520    0.75000   1.00
C1       0.25000    0.75000    0.85520   1.00
O1       1.00000    1.00000    1.00000   1.00
Zn1      0.96720    1.03280    1.03280   1.00
Zn1      1.03280    0.96720    1.03280   1.00
Zn1      1.03280    1.03280    0.96720   1.00
Zn1      0.96720    0.96720    0.96720   1.00
O2       0.97650    1.02350    1.08820   1.00
O2       0.97650    1.08820    1.02350   1.00
O2       0.91180    1.02350    1.02350   1.00
O2       1.02350    0.97650    1.08820   1.00
O2       1.08820    0.97650    1.02350   1.00
O2       1.02350    0.91180    1.02350   1.00
O2       1.02350    1.08820    0.97650   1.00
O2       1.08820    1.02350    0.97650   1.00
O2       1.02350    1.02350    0.91180   1.00
O2       0.91180    0.97650    0.97650   1.00
O2       0.97650    0.91180    0.97650   1.00
O2       0.97650    0.97650    0.91180   1.00
C1       1.00000    1.00000    1.10520   1.00
C1       1.00000    1.10520    1.00000   1.00
C1       0.89480    1.00000    1.00000   1.00
C1       1.10520    1.00000    1.00000   1.00
C1       1.00000    0.89480    1.00000   1.00
C1       1.00000    1.00000    0.89480   1.00
O1       0.50000    0.50000    1.00000   1.00
Zn1      0.46720    0.53280    1.03280   1.00
Zn1      0.53280    0.46720    1.03280   1.00
Zn1      0.53280    0.53280    0.96720   1.00
Zn1      0.46720    0.46720    0.96720   1.00
O2       0.47650    0.52350    1.08820   1.00
O2       0.47650    0.58820    1.02350   1.00
O2       0.41180    0.52350    1.02350   1.00
O2       0.52350    0.47650    1.08820   1.00
O2       0.58820    0.47650    1.02350   1.00
O2       0.52350    0.41180    1.02350   1.00
O2       0.52350    0.58820    0.97650   1.00
O2       0.58820    0.52350    0.97650   1.00
O2       0.52350    0.52350    0.91180   1.00
O2       0.41180    0.47650    0.97650   1.00
O2       0.47650    0.41180    0.97650   1.00
O2       0.47650    0.47650    0.91180   1.00
C1       0.50000    0.50000    1.10520   1.00
C1       0.50000    0.60520    1.00000   1.00
C1       0.39480    0.50000    1.00000   1.00
C1       0.60520    0.50000    1.00000   1.00
C1       0.50000    0.39480    1.00000   1.00
C1       0.50000    0.50000    0.89480   1.00
O1       0.50000    1.00000    0.50000   1.00
Zn1      0.46720    1.03280    0.53280   1.00
Zn1      0.53280    0.96720    0.53280   1.00
Zn1      0.53280    1.03280    0.46720   1.00
Zn1      0.46720    0.96720    0.46720   1.00
O2       0.47650    1.02350    0.58820   1.00
O2       0.47650    1.08820    0.52350   1.00
O2       0.41180    1.02350    0.52350   1.00
O2       0.52350    0.97650    0.58820   1.00
O2       0.58820    0.97650    0.52350   1.00
O2       0.52350    0.91180    0.52350   1.00
O2       0.52350    1.08820    0.47650   1.00
O2       0.58820    1.02350    0.47650   1.00
O2       0.52350    1.02350    0.41180   1.00
O2       0.41180    0.97650    0.47650   1.00
O2       0.47650    0.91180    0.47650   1.00
O2       0.47650    0.97650    0.41180   1.00
C1       0.50000    1.00000    0.60520   1.00
C1       0.50000    1.10520    0.50000   1.00
C1       0.39480    1.00000    0.50000   1.00
C1       0.60520    1.00000    0.50000   1.00
C1       0.50000    0.89480    0.50000   1.00
C1       0.50000    1.00000    0.39480   1.00
O1       1.00000    0.50000    0.50000   1.00
Zn1      0.96720    0.53280    0.53280   1.00
Zn1      1.03280    0.46720    0.53280   1.00
Zn1      1.03280    0.53280    0.46720   1.00
Zn1      0.96720    0.46720    0.46720   1.00
O2       0.97650    0.52350    0.58820   1.00
O2       0.97650    0.58820    0.52350   1.00
O2       0.91180    0.52350    0.52350   1.00
O2       1.02350    0.47650    0.58820   1.00
O2       1.08820    0.47650    0.52350   1.00
O2       1.02350    0.41180    0.52350   1.00
O2       1.02350    0.58820    0.47650   1.00
O2       1.08820    0.52350    0.47650   1.00
O2       1.02350    0.52350    0.41180   1.00
O2       0.91180    0.47650    0.47650   1.00
O2       0.97650    0.41180    0.47650   1.00
O2       0.97650    0.47650    0.41180   1.00
C1       1.00000    0.50000    0.60520   1.00
C1       1.00000    0.60520    0.50000   1.00
C1       0.89480    0.50000    0.50000   1.00
C1       1.10520    0.50000    0.50000   1.00
C1       1.00000    0.39480    0.50000   1.00
C1       1.00000    0.50000    0.39480   1.00
O1       0.50000    0.50000    0.50000   1.00
Zn1      0.53280    0.46720    0.46720   1.00
Zn1      0.46720    0.53280    0.46720   1.00
Zn1      0.46720    0.46720    0.53280   1.00
Zn1      0.53280    0.53280    0.53280   1.00
O2       0.52350    0.47650    0.41180   1.00
O2       0.52350    0.41180    0.47650   1.00
O2       0.58820    0.47650    0.47650   1.00
O2       0.47650    0.52350    0.41180   1.00
O2       0.41180    0.52350    0.47650   1.00
O2       0.47650    0.58820    0.47650   1.00
O2       0.47650    0.41180    0.52350   1.00
O2       0.41180    0.47650    0.52350   1.00
O2       0.47650    0.47650    0.58820   1.00
O2       0.58820    0.52350    0.52350   1.00
O2       0.52350    0.58820    0.52350   1.00
O2       0.52350    0.52350    0.58820   1.00
C1       0.50000    0.50000    0.39480   1.00
C1       0.50000    0.39480    0.50000   1.00
C1       0.60520    0.50000    0.50000   1.00
C1       0.39480    0.50000    0.50000   1.00
C1       0.50000    0.60520    0.50000   1.00
C1       0.50000    0.50000    0.60520   1.00
O1       1.00000    1.00000    0.50000   1.00
Zn1      1.03280    0.96720    0.46720   1.00
Zn1      0.96720    1.03280    0.46720   1.00
Zn1      0.96720    0.96720    0.53280   1.00
Zn1      1.03280    1.03280    0.53280   1.00
O2       1.02350    0.97650    0.41180   1.00
O2       1.02350    0.91180    0.47650   1.00
O2       1.08820    0.97650    0.47650   1.00
O2       0.97650    1.02350    0.41180   1.00
O2       0.91180    1.02350    0.47650   1.00
O2       0.97650    1.08820    0.47650   1.00
O2       0.97650    0.91180    0.52350   1.00
O2       0.91180    0.97650    0.52350   1.00
O2       0.97650    0.97650    0.58820   1.00
O2       1.08820    1.02350    0.52350   1.00
O2       1.02350    1.08820    0.52350   1.00
O2       1.02350    1.02350    0.58820   1.00
C1       1.00000    1.00000    0.39480   1.00
C1       1.00000    0.89480    0.50000   1.00
C1       1.10520    1.00000    0.50000   1.00
C1       0.89480    1.00000    0.50000   1.00
C1       1.00000    1.10520    0.50000   1.00
C1       1.00000    1.00000    0.60520   1.00
O1       1.00000    0.50000    1.00000   1.00
Zn1      1.03280    0.46720    0.96720   1.00
Zn1      0.96720    0.53280    0.96720   1.00
Zn1      0.96720    0.46720    1.03280   1.00
Zn1      1.03280    0.53280    1.03280   1.00
O2       1.02350    0.47650    0.91180   1.00
O2       1.02350    0.41180    0.97650   1.00
O2       1.08820    0.47650    0.97650   1.00
O2       0.97650    0.52350    0.91180   1.00
O2       0.91180    0.52350    0.97650   1.00
O2       0.97650    0.58820    0.97650   1.00
O2       0.97650    0.41180    1.02350   1.00
O2       0.91180    0.47650    1.02350   1.00
O2       0.97650    0.47650    1.08820   1.00
O2       1.08820    0.52350    1.02350   1.00
O2       1.02350    0.58820    1.02350   1.00
O2       1.02350    0.52350    1.08820   1.00
C1       1.00000    0.50000    0.89480   1.00
C1       1.00000    0.39480    1.00000   1.00
C1       1.10520    0.50000    1.00000   1.00
C1       0.89480    0.50000    1.00000   1.00
C1       1.00000    0.60520    1.00000   1.00
C1       1.00000    0.50000    1.10520   1.00
O1       0.50000    1.00000    1.00000   1.00
Zn1      0.53280    0.96720    0.96720   1.00
Zn1      0.46720    1.03280    0.96720   1.00
Zn1      0.46720    0.96720    1.03280   1.00
Zn1      0.53280    1.03280    1.03280   1.00
O2       0.52350    0.97650    0.91180   1.00
O2       0.52350    0.91180    0.97650   1.00
O2       0.58820    0.97650    0.97650   1.00
O2       0.47650    1.02350    0.91180   1.00
O2       0.41180    1.02350    0.97650   1.00
O2       0.47650    1.08820    0.97650   1.00
O2       0.47650    0.91180    1.02350   1.00
O2       0.41180    0.97650    1.02350   1.00
O2       0.47650    0.97650    1.08820   1.00
O2       0.58820    1.02350    1.02350   1.00
O2       0.52350    1.08820    1.02350   1.00
O2       0.52350    1.02350    1.08820   1.00
C1       0.50000    1.00000    0.89480   1.00
C1       0.50000    0.89480    1.00000   1.00
C1       0.60520    1.00000    1.00000   1.00
C1       0.39480    1.00000    1.00000   1.00
C1       0.50000    1.10520    1.00000   1.00
C1       0.50000    1.00000    1.10520   1.00
C5       0.86712    0.70145    1.13218   1.00
H2       0.86825    0.73000    1.14745   1.00
H2       0.89157    0.70182    1.11090   1.00
C5       0.87276    0.66828    1.16194   1.00
C5       0.91631    0.66239    1.17123   1.00
H2       0.86060    0.64056    1.15015   1.00
O3       0.73445    0.68091    0.98000   1.00
C4       0.74986    0.75040    1.02100   1.00
C3c      0.78408    0.74340    1.04243   1.00
H1       0.81119    0.73796    1.02725   1.00
C3d      0.71496    0.75797    1.04135   1.00
C3       0.78385    0.74272    1.08354   1.00
O2       0.81919    0.74044    1.10248   1.00
C3       0.71447    0.75658    1.08227   1.00
H1       0.68674    0.76119    1.09657   1.00
C2       0.74872    0.74912    1.10439   1.00
C5       0.69430    0.67175    0.97879   1.00
H2       0.68357    0.66749    0.94838   1.00
H2       0.67650    0.69523    0.99266   1.00
C5       0.68844    0.63383    1.00129   1.00
H2       0.70017    0.63774    1.03137   1.00
H2       0.70605    0.61052    0.98698   1.00
C5       0.64502    0.62238    1.00262   1.00
H2       0.63305    0.61869    0.97268   1.00
H2       0.62762    0.64500    1.01811   1.00
C5       0.64005    0.58343    1.02445   1.00
C5       0.67479    0.80154    1.01105   1.00
C5       0.82816    0.70102    1.11070   1.00
H2       0.69820    0.81145    0.99088   1.00
H2       0.67452    0.82104    1.03712   1.00
H2       0.83073    0.68410    1.08300   1.00
H2       0.80529    0.68653    1.12895   1.00
H2       0.85819    0.67522    1.19030   1.00
H2       0.65174    0.84487    0.94247   1.00
H2       0.63754    0.86880    0.98763   1.00
C2       0.74780    0.74847    0.89605   1.00
C3       0.75764    0.78316    0.91597   1.00
O2       0.75709    0.81852    0.89674   1.00
C3       0.74067    0.71439    0.91826   1.00
H1       0.73407    0.68714    0.90385   1.00
C3a      0.75912    0.78333    0.95713   1.00
H1       0.76450    0.81062    0.97202   1.00
C3b      0.74095    0.71496    0.95922   1.00
C4       0.75014    0.74960    0.97900   1.00
O3       0.67994    0.76209    1.02167   1.00
C5       0.79542    0.83014    0.88720   1.00
H2       0.81384    0.83322    0.91391   1.00
C5       0.79239    0.86953    0.86674   1.00
H2       0.80949    0.80863    0.86726   1.00
H2       0.78857    0.89258    0.88932   1.00
H2       0.76511    0.86924    0.84907   1.00
C5       0.82794    0.87859    0.84082   1.00
H2       0.85514    0.87571    0.85824   1.00
C5       0.82556    0.92039    0.82453   1.00
H2       0.82931    0.85859    0.81507   1.00
C5       0.63564    0.80479    0.99017   1.00
H2       0.61193    0.80144    1.01215   1.00
H2       0.63301    0.77981    0.96952   1.00
C5       0.63154    0.84364    0.96800   1.00
C5       0.58969    0.84795    0.95225   1.00
H2       0.92627    0.68561    1.19286   1.00
C5       0.92244    0.62164    1.18912   1.00
H2       0.93407    0.66498    1.14323   1.00
C5       0.59653    0.57671    1.03337   1.00
H2       0.65145    0.55858    1.00551   1.00
H2       0.65718    0.58442    1.05293   1.00
C5       0.86456    0.93108    0.80497   1.00
H2       0.80106    0.92217    0.80211   1.00
H2       0.81942    0.94163    0.84937   1.00
H2       0.58105    0.82024    0.93602   1.00
H2       0.56876    0.85293    0.97761   1.00
C5       0.58779    0.88297    0.92417   1.00
H2       0.89356    0.61037    1.20116   1.00
H2       0.93357    0.60081    1.16571   1.00
H2       0.94471    0.62358    1.21374   1.00
H2       0.57837    0.60008    1.01820   1.00
H2       0.58745    0.54670    1.02229   1.00
H2       0.59156    0.57838    1.06621   1.00
H2       0.87654    0.90456    0.78889   1.00
H2       0.85968    0.95588    0.78336   1.00
H2       0.88632    0.94074    0.82819   1.00
H2       0.59330    0.87255    0.89307   1.00
H2       0.55771    0.89701    0.92598   1.00
H2       0.61097    0.90526    0.93266   1.00
C5       0.70145    1.13218    0.86712   1.00
H2       0.73000    1.14745    0.86825   1.00
H2       0.70182    1.11090    0.89157   1.00
C5       0.66828    1.16194    0.87276   1.00
C5       0.66239    1.17123    0.91631   1.00
H2       0.64056    1.15015    0.86060   1.00
O3       0.68091    0.98000    0.73445   1.00
C4       0.75040    1.02100    0.74986   1.00
C3c      0.74340    1.04243    0.78408   1.00
H1       0.73796    1.02725    0.81119   1.00
C3d      0.75797    1.04135    0.71496   1.00
C3       0.74272    1.08354    0.78385   1.00
O2       0.74044    1.10248    0.81919   1.00
C3       0.75658    1.08227    0.71447   1.00
H1       0.76119    1.09657    0.68674   1.00
C2       0.74912    1.10439    0.74872   1.00
C5       0.67175    0.97879    0.69430   1.00
H2       0.66749    0.94838    0.68357   1.00
H2       0.69523    0.99266    0.67650   1.00
C5       0.63383    1.00129    0.68844   1.00
H2       0.63774    1.03137    0.70017   1.00
H2       0.61052    0.98698    0.70605   1.00
C5       0.62238    1.00262    0.64502   1.00
H2       0.61869    0.97268    0.63305   1.00
H2       0.64500    1.01811    0.62762   1.00
C5       0.58343    1.02445    0.64005   1.00
C5       0.80154    1.01105    0.67479   1.00
C5       0.70102    1.11070    0.82816   1.00
H2       0.81145    0.99088    0.69820   1.00
H2       0.82104    1.03712    0.67452   1.00
H2       0.68410    1.08300    0.83073   1.00
H2       0.68653    1.12895    0.80529   1.00
H2       0.67522    1.19030    0.85819   1.00
H2       0.84487    0.94247    0.65174   1.00
H2       0.86880    0.98763    0.63754   1.00
C2       0.74847    0.89605    0.74780   1.00
C3       0.78316    0.91597    0.75764   1.00
O2       0.81852    0.89674    0.75709   1.00
C3       0.71439    0.91826    0.74067   1.00
H1       0.68714    0.90385    0.73407   1.00
C3a      0.78333    0.95713    0.75912   1.00
H1       0.81062    0.97202    0.76450   1.00
C3b      0.71496    0.95922    0.74095   1.00
C4       0.74960    0.97900    0.75014   1.00
O3       0.76209    1.02167    0.67994   1.00
C5       0.83014    0.88720    0.79542   1.00
H2       0.83322    0.91391    0.81384   1.00
C5       0.86953    0.86674    0.79239   1.00
H2       0.80863    0.86726    0.80949   1.00
H2       0.89258    0.88932    0.78857   1.00
H2       0.86924    0.84907    0.76511   1.00
C5       0.87859    0.84082    0.82794   1.00
H2       0.87571    0.85824    0.85514   1.00
C5       0.92039    0.82453    0.82556   1.00
H2       0.85859    0.81507    0.82931   1.00
C5       0.80479    0.99017    0.63564   1.00
H2       0.80144    1.01215    0.61193   1.00
H2       0.77981    0.96952    0.63301   1.00
C5       0.84364    0.96800    0.63154   1.00
C5       0.84795    0.95225    0.58969   1.00
H2       0.68561    1.19286    0.92627   1.00
C5       0.62164    1.18912    0.92244   1.00
H2       0.66498    1.14323    0.93407   1.00
C5       0.57671    1.03337    0.59653   1.00
H2       0.55858    1.00551    0.65145   1.00
H2       0.58442    1.05293    0.65718   1.00
C5       0.93108    0.80497    0.86456   1.00
H2       0.92217    0.80211    0.80106   1.00
H2       0.94163    0.84937    0.81942   1.00
H2       0.82024    0.93602    0.58105   1.00
H2       0.85293    0.97761    0.56876   1.00
C5       0.88297    0.92417    0.58779   1.00
H2       0.61037    1.20116    0.89356   1.00
H2       0.60081    1.16571    0.93357   1.00
H2       0.62358    1.21374    0.94471   1.00
H2       0.60008    1.01820    0.57837   1.00
H2       0.54670    1.02229    0.58745   1.00
H2       0.57838    1.06621    0.59156   1.00
H2       0.90456    0.78889    0.87654   1.00
H2       0.95588    0.78336    0.85968   1.00
H2       0.94074    0.82819    0.88632   1.00
H2       0.87255    0.89307    0.59330   1.00
H2       0.89701    0.92598    0.55771   1.00
H2       0.90526    0.93266    0.61097   1.00
C5       0.36782    0.86712    0.79855   1.00
H2       0.35255    0.86825    0.77000   1.00
H2       0.38910    0.89157    0.79818   1.00
C5       0.33806    0.87276    0.83172   1.00
C5       0.32877    0.91631    0.83761   1.00
H2       0.34985    0.86060    0.85944   1.00
O3       0.52000    0.73445    0.81909   1.00
C4       0.47900    0.74986    0.74960   1.00
C3c      0.45757    0.78408    0.75660   1.00
H1       0.47275    0.81119    0.76204   1.00
C3d      0.45865    0.71496    0.74203   1.00
C3       0.41646    0.78385    0.75728   1.00
O2       0.39752    0.81919    0.75956   1.00
C3       0.41773    0.71447    0.74342   1.00
H1       0.40343    0.68674    0.73881   1.00
C2       0.39561    0.74872    0.75088   1.00
C5       0.52121    0.69430    0.82825   1.00
H2       0.55162    0.68357    0.83251   1.00
H2       0.50734    0.67650    0.80477   1.00
C5       0.49871    0.68844    0.86617   1.00
H2       0.46863    0.70017    0.86226   1.00
H2       0.51302    0.70605    0.88948   1.00
C5       0.49738    0.64502    0.87762   1.00
H2       0.52732    0.63305    0.88131   1.00
H2       0.48189    0.62762    0.85500   1.00
C5       0.47555    0.64005    0.91657   1.00
C5       0.48895    0.67479    0.69846   1.00
C5       0.38930    0.82816    0.79898   1.00
H2       0.50912    0.69820    0.68855   1.00
H2       0.46288    0.67452    0.67896   1.00
H2       0.41700    0.83073    0.81590   1.00
H2       0.37105    0.80529    0.81347   1.00
H2       0.30970    0.85819    0.82478   1.00
H2       0.55753    0.65174    0.65513   1.00
H2       0.51237    0.63754    0.63120   1.00
C2       0.60395    0.74780    0.75153   1.00
C3       0.58403    0.75764    0.71684   1.00
O2       0.60326    0.75709    0.68148   1.00
C3       0.58174    0.74067    0.78561   1.00
H1       0.59615    0.73407    0.81286   1.00
C3a      0.54287    0.75912    0.71667   1.00
H1       0.52798    0.76450    0.68938   1.00
C3b      0.54078    0.74095    0.78504   1.00
C4       0.52100    0.75014    0.75040   1.00
O3       0.47833    0.67994    0.73791   1.00
C5       0.61280    0.79542    0.66986   1.00
H2       0.58609    0.81384    0.66678   1.00
C5       0.63326    0.79239    0.63047   1.00
H2       0.63274    0.80949    0.69137   1.00
H2       0.61068    0.78857    0.60742   1.00
H2       0.65093    0.76511    0.63076   1.00
C5       0.65918    0.82794    0.62141   1.00
H2       0.64176    0.85514    0.62429   1.00
C5       0.67547    0.82556    0.57961   1.00
H2       0.68493    0.82931    0.64141   1.00
C5       0.50983    0.63564    0.69521   1.00
H2       0.48785    0.61193    0.69856   1.00
H2       0.53048    0.63301    0.72019   1.00
C5       0.53200    0.63154    0.65636   1.00
C5       0.54775    0.58969    0.65205   1.00
H2       0.30714    0.92627    0.81439   1.00
C5       0.31088    0.92244    0.87836   1.00
H2       0.35677    0.93407    0.83502   1.00
C5       0.46663    0.59653    0.92329   1.00
H2       0.49449    0.65145    0.94142   1.00
H2       0.44707    0.65718    0.91558   1.00
C5       0.69503    0.86456    0.56892   1.00
H2       0.69789    0.80106    0.57783   1.00
H2       0.65063    0.81942    0.55837   1.00
H2       0.56398    0.58105    0.67976   1.00
H2       0.52239    0.56876    0.64707   1.00
C5       0.57583    0.58779    0.61703   1.00
H2       0.29884    0.89356    0.88963   1.00
H2       0.33429    0.93357    0.89919   1.00
H2       0.28626    0.94471    0.87642   1.00
H2       0.48180    0.57837    0.89992   1.00
H2       0.47771    0.58745    0.95330   1.00
H2       0.43379    0.59156    0.92162   1.00
H2       0.71111    0.87654    0.59544   1.00
H2       0.71664    0.85968    0.54412   1.00
H2       0.67181    0.88632    0.55926   1.00
H2       0.60693    0.59330    0.62745   1.00
H2       0.57402    0.55771    0.60299   1.00
H2       0.56734    0.61097    0.59474   1.00
C5       1.13218    0.86712    0.70145   1.00
H2       1.14745    0.86825    0.73000   1.00
H2       1.11090    0.89157    0.70182   1.00
C5       1.16194    0.87276    0.66828   1.00
C5       1.17123    0.91631    0.66239   1.00
H2       1.15015    0.86060    0.64056   1.00
O3       0.98000    0.73445    0.68091   1.00
C4       1.02100    0.74986    0.75040   1.00
C3c      1.04243    0.78408    0.74340   1.00
H1       1.02725    0.81119    0.73796   1.00
C3d      1.04135    0.71496    0.75797   1.00
C3       1.08354    0.78385    0.74272   1.00
O2       1.10248    0.81919    0.74044   1.00
C3       1.08227    0.71447    0.75658   1.00
H1       1.09657    0.68674    0.76119   1.00
C2       1.10439    0.74872    0.74912   1.00
C5       0.97879    0.69430    0.67175   1.00
H2       0.94838    0.68357    0.66749   1.00
H2       0.99266    0.67650    0.69523   1.00
C5       1.00129    0.68844    0.63383   1.00
H2       1.03137    0.70017    0.63774   1.00
H2       0.98698    0.70605    0.61052   1.00
C5       1.00262    0.64502    0.62238   1.00
H2       0.97268    0.63305    0.61869   1.00
H2       1.01811    0.62762    0.64500   1.00
C5       1.02445    0.64005    0.58343   1.00
C5       1.01105    0.67479    0.80154   1.00
C5       1.11070    0.82816    0.70102   1.00
H2       0.99088    0.69820    0.81145   1.00
H2       1.03712    0.67452    0.82104   1.00
H2       1.08300    0.83073    0.68410   1.00
H2       1.12895    0.80529    0.68653   1.00
H2       1.19030    0.85819    0.67522   1.00
H2       0.94247    0.65174    0.84487   1.00
H2       0.98763    0.63754    0.86880   1.00
C2       0.89605    0.74780    0.74847   1.00
C3       0.91597    0.75764    0.78316   1.00
O2       0.89674    0.75709    0.81852   1.00
C3       0.91826    0.74067    0.71439   1.00
H1       0.90385    0.73407    0.68714   1.00
C3a      0.95713    0.75912    0.78333   1.00
H1       0.97202    0.76450    0.81062   1.00
C3b      0.95922    0.74095    0.71496   1.00
C4       0.97900    0.75014    0.74960   1.00
O3       1.02167    0.67994    0.76209   1.00
C5       0.88720    0.79542    0.83014   1.00
H2       0.91391    0.81384    0.83322   1.00
C5       0.86674    0.79239    0.86953   1.00
H2       0.86726    0.80949    0.80863   1.00
H2       0.88932    0.78857    0.89258   1.00
H2       0.84907    0.76511    0.86924   1.00
C5       0.84082    0.82794    0.87859   1.00
H2       0.85824    0.85514    0.87571   1.00
C5       0.82453    0.82556    0.92039   1.00
H2       0.81507    0.82931    0.85859   1.00
C5       0.99017    0.63564    0.80479   1.00
H2       1.01215    0.61193    0.80144   1.00
H2       0.96952    0.63301    0.77981   1.00
C5       0.96800    0.63154    0.84364   1.00
C5       0.95225    0.58969    0.84795   1.00
H2       1.19286    0.92627    0.68561   1.00
C5       1.18912    0.92244    0.62164   1.00
H2       1.14323    0.93407    0.66498   1.00
C5       1.03337    0.59653    0.57671   1.00
H2       1.00551    0.65145    0.55858   1.00
H2       1.05293    0.65718    0.58442   1.00
C5       0.80497    0.86456    0.93108   1.00
H2       0.80211    0.80106    0.92217   1.00
H2       0.84937    0.81942    0.94163   1.00
H2       0.93602    0.58105    0.82024   1.00
H2       0.97761    0.56876    0.85293   1.00
C5       0.92417    0.58779    0.88297   1.00
H2       1.20116    0.89356    0.61037   1.00
H2       1.16571    0.93357    0.60081   1.00
H2       1.21374    0.94471    0.62358   1.00
H2       1.01820    0.57837    0.60008   1.00
H2       1.02229    0.58745    0.54670   1.00
H2       1.06621    0.59156    0.57838   1.00
H2       0.78889    0.87654    0.90456   1.00
H2       0.78336    0.85968    0.95588   1.00
H2       0.82819    0.88632    0.94074   1.00
H2       0.89307    0.59330    0.87255   1.00
H2       0.92598    0.55771    0.89701   1.00
H2       0.93266    0.61097    0.90526   1.00
C5       0.79855    0.36782    0.86712   1.00
H2       0.77000    0.35255    0.86825   1.00
H2       0.79818    0.38910    0.89157   1.00
C5       0.83172    0.33806    0.87276   1.00
C5       0.83761    0.32877    0.91631   1.00
H2       0.85944    0.34985    0.86060   1.00
O3       0.81909    0.52000    0.73445   1.00
C4       0.74960    0.47900    0.74986   1.00
C3c      0.75660    0.45757    0.78408   1.00
H1       0.76204    0.47275    0.81119   1.00
C3d      0.74203    0.45865    0.71496   1.00
C3       0.75728    0.41646    0.78385   1.00
O2       0.75956    0.39752    0.81919   1.00
C3       0.74342    0.41773    0.71447   1.00
H1       0.73881    0.40343    0.68674   1.00
C2       0.75088    0.39561    0.74872   1.00
C5       0.82825    0.52121    0.69430   1.00
H2       0.83251    0.55162    0.68357   1.00
H2       0.80477    0.50734    0.67650   1.00
C5       0.86617    0.49871    0.68844   1.00
H2       0.86226    0.46863    0.70017   1.00
H2       0.88948    0.51302    0.70605   1.00
C5       0.87762    0.49738    0.64502   1.00
H2       0.88131    0.52732    0.63305   1.00
H2       0.85500    0.48189    0.62762   1.00
C5       0.91657    0.47555    0.64005   1.00
C5       0.69846    0.48895    0.67479   1.00
C5       0.79898    0.38930    0.82816   1.00
H2       0.68855    0.50912    0.69820   1.00
H2       0.67896    0.46288    0.67452   1.00
H2       0.81590    0.41700    0.83073   1.00
H2       0.81347    0.37105    0.80529   1.00
H2       0.82478    0.30970    0.85819   1.00
H2       0.65513    0.55753    0.65174   1.00
H2       0.63120    0.51237    0.63754   1.00
C2       0.75153    0.60395    0.74780   1.00
C3       0.71684    0.58403    0.75764   1.00
O2       0.68148    0.60326    0.75709   1.00
C3       0.78561    0.58174    0.74067   1.00
H1       0.81286    0.59615    0.73407   1.00
C3a      0.71667    0.54287    0.75912   1.00
H1       0.68938    0.52798    0.76450   1.00
C3b      0.78504    0.54078    0.74095   1.00
C4       0.75040    0.52100    0.75014   1.00
O3       0.73791    0.47833    0.67994   1.00
C5       0.66986    0.61280    0.79542   1.00
H2       0.66678    0.58609    0.81384   1.00
C5       0.63047    0.63326    0.79239   1.00
H2       0.69137    0.63274    0.80949   1.00
H2       0.60742    0.61068    0.78857   1.00
H2       0.63076    0.65093    0.76511   1.00
C5       0.62141    0.65918    0.82794   1.00
H2       0.62429    0.64176    0.85514   1.00
C5       0.57961    0.67547    0.82556   1.00
H2       0.64141    0.68493    0.82931   1.00
C5       0.69521    0.50983    0.63564   1.00
H2       0.69856    0.48785    0.61193   1.00
H2       0.72019    0.53048    0.63301   1.00
C5       0.65636    0.53200    0.63154   1.00
C5       0.65205    0.54775    0.58969   1.00
H2       0.81439    0.30714    0.92627   1.00
C5       0.87836    0.31088    0.92244   1.00
H2       0.83502    0.35677    0.93407   1.00
C5       0.92329    0.46663    0.59653   1.00
H2       0.94142    0.49449    0.65145   1.00
H2       0.91558    0.44707    0.65718   1.00
C5       0.56892    0.69503    0.86456   1.00
H2       0.57783    0.69789    0.80106   1.00
H2       0.55837    0.65063    0.81942   1.00
H2       0.67976    0.56398    0.58105   1.00
H2       0.64707    0.52239    0.56876   1.00
C5       0.61703    0.57583    0.58779   1.00
H2       0.88963    0.29884    0.89356   1.00
H2       0.89919    0.33429    0.93357   1.00
H2       0.87642    0.28626    0.94471   1.00
H2       0.89992    0.48180    0.57837   1.00
H2       0.95330    0.47771    0.58745   1.00
H2       0.92162    0.43379    0.59156   1.00
H2       0.59544    0.71111    0.87654   1.00
H2       0.54412    0.71664    0.85968   1.00
H2       0.55926    0.67181    0.88632   1.00
H2       0.62745    0.60693    0.59330   1.00
H2       0.60299    0.57402    0.55771   1.00
H2       0.59474    0.56734    0.61097   1.00
C5       0.86712    0.79855    0.36782   1.00
H2       0.86825    0.77000    0.35255   1.00
H2       0.89157    0.79818    0.38910   1.00
C5       0.87276    0.83172    0.33806   1.00
C5       0.91631    0.83761    0.32877   1.00
H2       0.86060    0.85944    0.34985   1.00
O3       0.73445    0.81909    0.52000   1.00
C4       0.74986    0.74960    0.47900   1.00
C3c      0.78408    0.75660    0.45757   1.00
H1       0.81119    0.76204    0.47275   1.00
C3d      0.71496    0.74203    0.45865   1.00
C3       0.78385    0.75728    0.41646   1.00
O2       0.81919    0.75956    0.39752   1.00
C3       0.71447    0.74342    0.41773   1.00
H1       0.68674    0.73881    0.40343   1.00
C2       0.74872    0.75088    0.39561   1.00
C5       0.69430    0.82825    0.52121   1.00
H2       0.68357    0.83251    0.55162   1.00
H2       0.67650    0.80477    0.50734   1.00
C5       0.68844    0.86617    0.49871   1.00
H2       0.70017    0.86226    0.46863   1.00
H2       0.70605    0.88948    0.51302   1.00
C5       0.64502    0.87762    0.49738   1.00
H2       0.63305    0.88131    0.52732   1.00
H2       0.62762    0.85500    0.48189   1.00
C5       0.64005    0.91657    0.47555   1.00
C5       0.67479    0.69846    0.48895   1.00
C5       0.82816    0.79898    0.38930   1.00
H2       0.69820    0.68855    0.50912   1.00
H2       0.67452    0.67896    0.46288   1.00
H2       0.83073    0.81590    0.41700   1.00
H2       0.80529    0.81347    0.37105   1.00
H2       0.85819    0.82478    0.30970   1.00
H2       0.65174    0.65513    0.55753   1.00
H2       0.63754    0.63120    0.51237   1.00
C2       0.74780    0.75153    0.60395   1.00
C3       0.75764    0.71684    0.58403   1.00
O2       0.75709    0.68148    0.60326   1.00
C3       0.74067    0.78561    0.58174   1.00
H1       0.73407    0.81286    0.59615   1.00
C3a      0.75912    0.71667    0.54287   1.00
H1       0.76450    0.68938    0.52798   1.00
C3b      0.74095    0.78504    0.54078   1.00
C4       0.75014    0.75040    0.52100   1.00
O3       0.67994    0.73791    0.47833   1.00
C5       0.79542    0.66986    0.61280   1.00
H2       0.81384    0.66678    0.58609   1.00
C5       0.79239    0.63047    0.63326   1.00
H2       0.80949    0.69137    0.63274   1.00
H2       0.78857    0.60742    0.61068   1.00
H2       0.76511    0.63076    0.65093   1.00
C5       0.82794    0.62141    0.65918   1.00
H2       0.85514    0.62429    0.64176   1.00
C5       0.82556    0.57961    0.67547   1.00
H2       0.82931    0.64141    0.68493   1.00
C5       0.63564    0.69521    0.50983   1.00
H2       0.61193    0.69856    0.48785   1.00
H2       0.63301    0.72019    0.53048   1.00
C5       0.63154    0.65636    0.53200   1.00
C5       0.58969    0.65205    0.54775   1.00
H2       0.92627    0.81439    0.30714   1.00
C5       0.92244    0.87836    0.31088   1.00
H2       0.93407    0.83502    0.35677   1.00
C5       0.59653    0.92329    0.46663   1.00
H2       0.65145    0.94142    0.49449   1.00
H2       0.65718    0.91558    0.44707   1.00
C5       0.86456    0.56892    0.69503   1.00
H2       0.80106    0.57783    0.69789   1.00
H2       0.81942    0.55837    0.65063   1.00
H2       0.58105    0.67976    0.56398   1.00
H2       0.56876    0.64707    0.52239   1.00
C5       0.58779    0.61703    0.57583   1.00
H2       0.89356    0.88963    0.29884   1.00
H2       0.93357    0.89919    0.33429   1.00
H2       0.94471    0.87642    0.28626   1.00
H2       0.57837    0.89992    0.48180   1.00
H2       0.58745    0.95330    0.47771   1.00
H2       0.59156    0.92162    0.43379   1.00
H2       0.87654    0.59544    0.71111   1.00
H2       0.85968    0.54412    0.71664   1.00
H2       0.88632    0.55926    0.67181   1.00
H2       0.59330    0.62745    0.60693   1.00
H2       0.55771    0.60299    0.57402   1.00
H2       0.61097    0.59474    0.56734   1.00
C5       0.36712    0.20145    1.13218   1.00
H2       0.36825    0.23000    1.14745   1.00
H2       0.39157    0.20182    1.11090   1.00
C5       0.37276    0.16828    1.16194   1.00
C5       0.41631    0.16239    1.17123   1.00
H2       0.36060    0.14056    1.15015   1.00
O3       0.23445    0.18091    0.98000   1.00
C4       0.24986    0.25040    1.02100   1.00
C3c      0.28408    0.24340    1.04243   1.00
H1       0.31119    0.23796    1.02725   1.00
C3d      0.21496    0.25797    1.04135   1.00
C3       0.28385    0.24272    1.08354   1.00
O2       0.31919    0.24044    1.10248   1.00
C3       0.21447    0.25658    1.08227   1.00
H1       0.18674    0.26119    1.09657   1.00
C2       0.24872    0.24912    1.10439   1.00
C5       0.19430    0.17175    0.97879   1.00
H2       0.18357    0.16749    0.94838   1.00
H2       0.17650    0.19523    0.99266   1.00
C5       0.18844    0.13383    1.00129   1.00
H2       0.20017    0.13774    1.03137   1.00
H2       0.20605    0.11052    0.98698   1.00
C5       0.14502    0.12238    1.00262   1.00
H2       0.13305    0.11869    0.97268   1.00
H2       0.12762    0.14500    1.01811   1.00
C5       0.14005    0.08343    1.02445   1.00
C5       0.17479    0.30154    1.01105   1.00
C5       0.32816    0.20102    1.11070   1.00
H2       0.19820    0.31145    0.99088   1.00
H2       0.17452    0.32104    1.03712   1.00
H2       0.33073    0.18410    1.08300   1.00
H2       0.30529    0.18653    1.12895   1.00
H2       0.35819    0.17522    1.19030   1.00
H2       0.15174    0.34487    0.94247   1.00
H2       0.13754    0.36880    0.98763   1.00
C2       0.24780    0.24847    0.89605   1.00
C3       0.25764    0.28316    0.91597   1.00
O2       0.25709    0.31852    0.89674   1.00
C3       0.24067    0.21439    0.91826   1.00
H1       0.23407    0.18714    0.90385   1.00
C3a      0.25912    0.28333    0.95713   1.00
H1       0.26450    0.31062    0.97202   1.00
C3b      0.24095    0.21496    0.95922   1.00
C4       0.25014    0.24960    0.97900   1.00
O3       0.17994    0.26209    1.02167   1.00
C5       0.29542    0.33014    0.88720   1.00
H2       0.31384    0.33322    0.91391   1.00
C5       0.29239    0.36953    0.86674   1.00
H2       0.30949    0.30863    0.86726   1.00
H2       0.28857    0.39258    0.88932   1.00
H2       0.26511    0.36924    0.84907   1.00
C5       0.32794    0.37859    0.84082   1.00
H2       0.35514    0.37571    0.85824   1.00
C5       0.32556    0.42039    0.82453   1.00
H2       0.32931    0.35859    0.81507   1.00
C5       0.13564    0.30479    0.99017   1.00
H2       0.11193    0.30144    1.01215   1.00
H2       0.13301    0.27981    0.96952   1.00
C5       0.13154    0.34364    0.96800   1.00
C5       0.08969    0.34795    0.95225   1.00
H2       0.42627    0.18561    1.19286   1.00
C5       0.42244    0.12164    1.18912   1.00
H2       0.43407    0.16498    1.14323   1.00
C5       0.09653    0.07671    1.03337   1.00
H2       0.15145    0.05858    1.00551   1.00
H2       0.15718    0.08442    1.05293   1.00
C5       0.36456    0.43108    0.80497   1.00
H2       0.30106    0.42217    0.80211   1.00
H2       0.31942    0.44163    0.84937   1.00
H2       0.08105    0.32024    0.93602   1.00
H2       0.06876    0.35293    0.97761   1.00
C5       0.08779    0.38297    0.92417   1.00
H2       0.39356    0.11037    1.20116   1.00
H2       0.43357    0.10081    1.16571   1.00
H2       0.44471    0.12358    1.21374   1.00
H2       0.07837    0.10008    1.01820   1.00
H2       0.08745    0.04670    1.02229   1.00
H2       0.09156    0.07838    1.06621   1.00
H2       0.37654    0.40456    0.78889   1.00
H2       0.35968    0.45588    0.78336   1.00
H2       0.38632    0.44074    0.82819   1.00
H2       0.09330    0.37255    0.89307   1.00
H2       0.05771    0.39701    0.92598   1.00
H2       0.11097    0.40526    0.93266   1.00
C5       0.20145    0.63218    0.86712   1.00
H2       0.23000    0.64745    0.86825   1.00
H2       0.20182    0.61090    0.89157   1.00
C5       0.16828    0.66194    0.87276   1.00
C5       0.16239    0.67123    0.91631   1.00
H2       0.14056    0.65015    0.86060   1.00
O3       0.18091    0.48000    0.73445   1.00
C4       0.25040    0.52100    0.74986   1.00
C3c      0.24340    0.54243    0.78408   1.00
H1       0.23796    0.52725    0.81119   1.00
C3d      0.25797    0.54135    0.71496   1.00
C3       0.24272    0.58354    0.78385   1.00
O2       0.24044    0.60248    0.81919   1.00
C3       0.25658    0.58227    0.71447   1.00
H1       0.26119    0.59657    0.68674   1.00
C2       0.24912    0.60439    0.74872   1.00
C5       0.17175    0.47879    0.69430   1.00
H2       0.16749    0.44838    0.68357   1.00
H2       0.19523    0.49266    0.67650   1.00
C5       0.13383    0.50129    0.68844   1.00
H2       0.13774    0.53137    0.70017   1.00
H2       0.11052    0.48698    0.70605   1.00
C5       0.12238    0.50262    0.64502   1.00
H2       0.11869    0.47268    0.63305   1.00
H2       0.14500    0.51811    0.62762   1.00
C5       0.08343    0.52445    0.64005   1.00
C5       0.30154    0.51105    0.67479   1.00
C5       0.20102    0.61070    0.82816   1.00
H2       0.31145    0.49088    0.69820   1.00
H2       0.32104    0.53712    0.67452   1.00
H2       0.18410    0.58300    0.83073   1.00
H2       0.18653    0.62895    0.80529   1.00
H2       0.17522    0.69030    0.85819   1.00
H2       0.34487    0.44247    0.65174   1.00
H2       0.36880    0.48763    0.63754   1.00
C2       0.24847    0.39605    0.74780   1.00
C3       0.28316    0.41597    0.75764   1.00
O2       0.31852    0.39674    0.75709   1.00
C3       0.21439    0.41826    0.74067   1.00
H1       0.18714    0.40385    0.73407   1.00
C3a      0.28333    0.45713    0.75912   1.00
H1       0.31062    0.47202    0.76450   1.00
C3b      0.21496    0.45922    0.74095   1.00
C4       0.24960    0.47900    0.75014   1.00
O3       0.26209    0.52167    0.67994   1.00
C5       0.33014    0.38720    0.79542   1.00
H2       0.33322    0.41391    0.81384   1.00
C5       0.36953    0.36674    0.79239   1.00
H2       0.30863    0.36726    0.80949   1.00
H2       0.39258    0.38932    0.78857   1.00
H2       0.36924    0.34907    0.76511   1.00
C5       0.37859    0.34082    0.82794   1.00
H2       0.37571    0.35824    0.85514   1.00
C5       0.42039    0.32453    0.82556   1.00
H2       0.35859    0.31507    0.82931   1.00
C5       0.30479    0.49017    0.63564   1.00
H2       0.30144    0.51215    0.61193   1.00
H2       0.27981    0.46952    0.63301   1.00
C5       0.34364    0.46800    0.63154   1.00
C5       0.34795    0.45225    0.58969   1.00
H2       0.18561    0.69286    0.92627   1.00
C5       0.12164    0.68912    0.92244   1.00
H2       0.16498    0.64323    0.93407   1.00
C5       0.07671    0.53337    0.59653   1.00
H2       0.05858    0.50551    0.65145   1.00
H2       0.08442    0.55293    0.65718   1.00
C5       0.43108    0.30497    0.86456   1.00
H2       0.42217    0.30211    0.80106   1.00
H2       0.44163    0.34937    0.81942   1.00
H2       0.32024    0.43602    0.58105   1.00
H2       0.35293    0.47761    0.56876   1.00
C5       0.38297    0.42417    0.58779   1.00
H2       0.11037    0.70116    0.89356   1.00
H2       0.10081    0.66571    0.93357   1.00
H2       0.12358    0.71374    0.94471   1.00
H2       0.10008    0.51820    0.57837   1.00
H2       0.04670    0.52229    0.58745   1.00
H2       0.07838    0.56621    0.59156   1.00
H2       0.40456    0.28889    0.87654   1.00
H2       0.45588    0.28336    0.85968   1.00
H2       0.44074    0.32819    0.88632   1.00
H2       0.37255    0.39307    0.59330   1.00
H2       0.39701    0.42598    0.55771   1.00
H2       0.40526    0.43266    0.61097   1.00
C5       -0.13218   0.36712    0.79855   1.00
H2       -0.14745   0.36825    0.77000   1.00
H2       -0.11090   0.39157    0.79818   1.00
C5       -0.16194   0.37276    0.83172   1.00
C5       -0.17123   0.41631    0.83761   1.00
H2       -0.15015   0.36060    0.85944   1.00
O3       0.02000    0.23445    0.81909   1.00
C4       -0.02100   0.24986    0.74960   1.00
C3c      -0.04243   0.28408    0.75660   1.00
H1       -0.02725   0.31119    0.76204   1.00
C3d      -0.04135   0.21496    0.74203   1.00
C3       -0.08354   0.28385    0.75728   1.00
O2       -0.10248   0.31919    0.75956   1.00
C3       -0.08227   0.21447    0.74342   1.00
H1       -0.09657   0.18674    0.73881   1.00
C2       -0.10439   0.24872    0.75088   1.00
C5       0.02121    0.19430    0.82825   1.00
H2       0.05162    0.18357    0.83251   1.00
H2       0.00734    0.17650    0.80477   1.00
C5       -0.00129   0.18844    0.86617   1.00
H2       -0.03137   0.20017    0.86226   1.00
H2       0.01302    0.20605    0.88948   1.00
C5       -0.00262   0.14502    0.87762   1.00
H2       0.02732    0.13305    0.88131   1.00
H2       -0.01811   0.12762    0.85500   1.00
C5       -0.02445   0.14005    0.91657   1.00
C5       -0.01105   0.17479    0.69846   1.00
C5       -0.11070   0.32816    0.79898   1.00
H2       0.00912    0.19820    0.68855   1.00
H2       -0.03712   0.17452    0.67896   1.00
H2       -0.08300   0.33073    0.81590   1.00
H2       -0.12895   0.30529    0.81347   1.00
H2       -0.19030   0.35819    0.82478   1.00
H2       0.05753    0.15174    0.65513   1.00
H2       0.01237    0.13754    0.63120   1.00
C2       0.10395    0.24780    0.75153   1.00
C3       0.08403    0.25764    0.71684   1.00
O2       0.10326    0.25709    0.68148   1.00
C3       0.08174    0.24067    0.78561   1.00
H1       0.09615    0.23407    0.81286   1.00
C3a      0.04287    0.25912    0.71667   1.00
H1       0.02798    0.26450    0.68938   1.00
C3b      0.04078    0.24095    0.78504   1.00
C4       0.02100    0.25014    0.75040   1.00
O3       -0.02167   0.17994    0.73791   1.00
C5       0.11280    0.29542    0.66986   1.00
H2       0.08609    0.31384    0.66678   1.00
C5       0.13326    0.29239    0.63047   1.00
H2       0.13274    0.30949    0.69137   1.00
H2       0.11068    0.28857    0.60742   1.00
H2       0.15093    0.26511    0.63076   1.00
C5       0.15918    0.32794    0.62141   1.00
H2       0.14176    0.35514    0.62429   1.00
C5       0.17547    0.32556    0.57961   1.00
H2       0.18493    0.32931    0.64141   1.00
C5       0.00983    0.13564    0.69521   1.00
H2       -0.01215   0.11193    0.69856   1.00
H2       0.03048    0.13301    0.72019   1.00
C5       0.03200    0.13154    0.65636   1.00
C5       0.04775    0.08969    0.65205   1.00
H2       -0.19286   0.42627    0.81439   1.00
C5       -0.18912   0.42244    0.87836   1.00
H2       -0.14323   0.43407    0.83502   1.00
C5       -0.03337   0.09653    0.92329   1.00
H2       -0.00551   0.15145    0.94142   1.00
H2       -0.05293   0.15718    0.91558   1.00
C5       0.19503    0.36456    0.56892   1.00
H2       0.19789    0.30106    0.57783   1.00
H2       0.15063    0.31942    0.55837   1.00
H2       0.06398    0.08105    0.67976   1.00
H2       0.02239    0.06876    0.64707   1.00
C5       0.07583    0.08779    0.61703   1.00
H2       -0.20116   0.39356    0.88963   1.00
H2       -0.16571   0.43357    0.89919   1.00
H2       -0.21374   0.44471    0.87642   1.00
H2       -0.01820   0.07837    0.89992   1.00
H2       -0.02229   0.08745    0.95330   1.00
H2       -0.06621   0.09156    0.92162   1.00
H2       0.21111    0.37654    0.59544   1.00
H2       0.21664    0.35968    0.54412   1.00
H2       0.17181    0.38632    0.55926   1.00
H2       0.10693    0.09330    0.62745   1.00
H2       0.07402    0.05771    0.60299   1.00
H2       0.06734    0.11097    0.59474   1.00
C5       0.63218    0.36712    0.70145   1.00
H2       0.64745    0.36825    0.73000   1.00
H2       0.61090    0.39157    0.70182   1.00
C5       0.66194    0.37276    0.66828   1.00
C5       0.67123    0.41631    0.66239   1.00
H2       0.65015    0.36060    0.64056   1.00
O3       0.48000    0.23445    0.68091   1.00
C4       0.52100    0.24986    0.75040   1.00
C3c      0.54243    0.28408    0.74340   1.00
H1       0.52725    0.31119    0.73796   1.00
C3d      0.54135    0.21496    0.75797   1.00
C3       0.58354    0.28385    0.74272   1.00
O2       0.60248    0.31919    0.74044   1.00
C3       0.58227    0.21447    0.75658   1.00
H1       0.59657    0.18674    0.76119   1.00
C2       0.60439    0.24872    0.74912   1.00
C5       0.47879    0.19430    0.67175   1.00
H2       0.44838    0.18357    0.66749   1.00
H2       0.49266    0.17650    0.69523   1.00
C5       0.50129    0.18844    0.63383   1.00
H2       0.53137    0.20017    0.63774   1.00
H2       0.48698    0.20605    0.61052   1.00
C5       0.50262    0.14502    0.62238   1.00
H2       0.47268    0.13305    0.61869   1.00
H2       0.51811    0.12762    0.64500   1.00
C5       0.52445    0.14005    0.58343   1.00
C5       0.51105    0.17479    0.80154   1.00
C5       0.61070    0.32816    0.70102   1.00
H2       0.49088    0.19820    0.81145   1.00
H2       0.53712    0.17452    0.82104   1.00
H2       0.58300    0.33073    0.68410   1.00
H2       0.62895    0.30529    0.68653   1.00
H2       0.69030    0.35819    0.67522   1.00
H2       0.44247    0.15174    0.84487   1.00
H2       0.48763    0.13754    0.86880   1.00
C2       0.39605    0.24780    0.74847   1.00
C3       0.41597    0.25764    0.78316   1.00
O2       0.39674    0.25709    0.81852   1.00
C3       0.41826    0.24067    0.71439   1.00
H1       0.40385    0.23407    0.68714   1.00
C3a      0.45713    0.25912    0.78333   1.00
H1       0.47202    0.26450    0.81062   1.00
C3b      0.45922    0.24095    0.71496   1.00
C4       0.47900    0.25014    0.74960   1.00
O3       0.52167    0.17994    0.76209   1.00
C5       0.38720    0.29542    0.83014   1.00
H2       0.41391    0.31384    0.83322   1.00
C5       0.36674    0.29239    0.86953   1.00
H2       0.36726    0.30949    0.80863   1.00
H2       0.38932    0.28857    0.89258   1.00
H2       0.34907    0.26511    0.86924   1.00
C5       0.34082    0.32794    0.87859   1.00
H2       0.35824    0.35514    0.87571   1.00
C5       0.32453    0.32556    0.92039   1.00
H2       0.31507    0.32931    0.85859   1.00
C5       0.49017    0.13564    0.80479   1.00
H2       0.51215    0.11193    0.80144   1.00
H2       0.46952    0.13301    0.77981   1.00
C5       0.46800    0.13154    0.84364   1.00
C5       0.45225    0.08969    0.84795   1.00
H2       0.69286    0.42627    0.68561   1.00
C5       0.68912    0.42244    0.62164   1.00
H2       0.64323    0.43407    0.66498   1.00
C5       0.53337    0.09653    0.57671   1.00
H2       0.50551    0.15145    0.55858   1.00
H2       0.55293    0.15718    0.58442   1.00
C5       0.30497    0.36456    0.93108   1.00
H2       0.30211    0.30106    0.92217   1.00
H2       0.34937    0.31942    0.94163   1.00
H2       0.43602    0.08105    0.82024   1.00
H2       0.47761    0.06876    0.85293   1.00
C5       0.42417    0.08779    0.88297   1.00
H2       0.70116    0.39356    0.61037   1.00
H2       0.66571    0.43357    0.60081   1.00
H2       0.71374    0.44471    0.62358   1.00
H2       0.51820    0.07837    0.60008   1.00
H2       0.52229    0.08745    0.54670   1.00
H2       0.56621    0.09156    0.57838   1.00
H2       0.28889    0.37654    0.90456   1.00
H2       0.28336    0.35968    0.95588   1.00
H2       0.32819    0.38632    0.94074   1.00
H2       0.39307    0.09330    0.87255   1.00
H2       0.42598    0.05771    0.89701   1.00
H2       0.43266    0.11097    0.90526   1.00
C5       0.29855    -0.13218   0.86712   1.00
H2       0.27000    -0.14745   0.86825   1.00
H2       0.29818    -0.11090   0.89157   1.00
C5       0.33172    -0.16194   0.87276   1.00
C5       0.33761    -0.17123   0.91631   1.00
H2       0.35944    -0.15015   0.86060   1.00
O3       0.31909    0.02000    0.73445   1.00
C4       0.24960    -0.02100   0.74986   1.00
C3c      0.25660    -0.04243   0.78408   1.00
H1       0.26204    -0.02725   0.81119   1.00
C3d      0.24203    -0.04135   0.71496   1.00
C3       0.25728    -0.08354   0.78385   1.00
O2       0.25956    -0.10248   0.81919   1.00
C3       0.24342    -0.08227   0.71447   1.00
H1       0.23881    -0.09657   0.68674   1.00
C2       0.25088    -0.10439   0.74872   1.00
C5       0.32825    0.02121    0.69430   1.00
H2       0.33251    0.05162    0.68357   1.00
H2       0.30477    0.00734    0.67650   1.00
C5       0.36617    -0.00129   0.68844   1.00
H2       0.36226    -0.03137   0.70017   1.00
H2       0.38948    0.01302    0.70605   1.00
C5       0.37762    -0.00262   0.64502   1.00
H2       0.38131    0.02732    0.63305   1.00
H2       0.35500    -0.01811   0.62762   1.00
C5       0.41657    -0.02445   0.64005   1.00
C5       0.19846    -0.01105   0.67479   1.00
C5       0.29898    -0.11070   0.82816   1.00
H2       0.18855    0.00912    0.69820   1.00
H2       0.17896    -0.03712   0.67452   1.00
H2       0.31590    -0.08300   0.83073   1.00
H2       0.31347    -0.12895   0.80529   1.00
H2       0.32478    -0.19030   0.85819   1.00
H2       0.15513    0.05753    0.65174   1.00
H2       0.13120    0.01237    0.63754   1.00
C2       0.25153    0.10395    0.74780   1.00
C3       0.21684    0.08403    0.75764   1.00
O2       0.18148    0.10326    0.75709   1.00
C3       0.28561    0.08174    0.74067   1.00
H1       0.31286    0.09615    0.73407   1.00
C3a      0.21667    0.04287    0.75912   1.00
H1       0.18938    0.02798    0.76450   1.00
C3b      0.28504    0.04078    0.74095   1.00
C4       0.25040    0.02100    0.75014   1.00
O3       0.23791    -0.02167   0.67994   1.00
C5       0.16986    0.11280    0.79542   1.00
H2       0.16678    0.08609    0.81384   1.00
C5       0.13047    0.13326    0.79239   1.00
H2       0.19137    0.13274    0.80949   1.00
H2       0.10742    0.11068    0.78857   1.00
H2       0.13076    0.15093    0.76511   1.00
C5       0.12141    0.15918    0.82794   1.00
H2       0.12429    0.14176    0.85514   1.00
C5       0.07961    0.17547    0.82556   1.00
H2       0.14141    0.18493    0.82931   1.00
C5       0.19521    0.00983    0.63564   1.00
H2       0.19856    -0.01215   0.61193   1.00
H2       0.22019    0.03048    0.63301   1.00
C5       0.15636    0.03200    0.63154   1.00
C5       0.15205    0.04775    0.58969   1.00
H2       0.31439    -0.19286   0.92627   1.00
C5       0.37836    -0.18912   0.92244   1.00
H2       0.33502    -0.14323   0.93407   1.00
C5       0.42329    -0.03337   0.59653   1.00
H2       0.44142    -0.00551   0.65145   1.00
H2       0.41558    -0.05293   0.65718   1.00
C5       0.06892    0.19503    0.86456   1.00
H2       0.07783    0.19789    0.80106   1.00
H2       0.05837    0.15063    0.81942   1.00
H2       0.17976    0.06398    0.58105   1.00
H2       0.14707    0.02239    0.56876   1.00
C5       0.11703    0.07583    0.58779   1.00
H2       0.38963    -0.20116   0.89356   1.00
H2       0.39919    -0.16571   0.93357   1.00
H2       0.37642    -0.21374   0.94471   1.00
H2       0.39992    -0.01820   0.57837   1.00
H2       0.45330    -0.02229   0.58745   1.00
H2       0.42162    -0.06621   0.59156   1.00
H2       0.09544    0.21111    0.87654   1.00
H2       0.04412    0.21664    0.85968   1.00
H2       0.05926    0.17181    0.88632   1.00
H2       0.12745    0.10693    0.59330   1.00
H2       0.10299    0.07402    0.55771   1.00
H2       0.09474    0.06734    0.61097   1.00
C5       0.36712    0.29855    0.36782   1.00
H2       0.36825    0.27000    0.35255   1.00
H2       0.39157    0.29818    0.38910   1.00
C5       0.37276    0.33172    0.33806   1.00
C5       0.41631    0.33761    0.32877   1.00
H2       0.36060    0.35944    0.34985   1.00
O3       0.23445    0.31909    0.52000   1.00
C4       0.24986    0.24960    0.47900   1.00
C3c      0.28408    0.25660    0.45757   1.00
H1       0.31119    0.26204    0.47275   1.00
C3d      0.21496    0.24203    0.45865   1.00
C3       0.28385    0.25728    0.41646   1.00
O2       0.31919    0.25956    0.39752   1.00
C3       0.21447    0.24342    0.41773   1.00
H1       0.18674    0.23881    0.40343   1.00
C2       0.24872    0.25088    0.39561   1.00
C5       0.19430    0.32825    0.52121   1.00
H2       0.18357    0.33251    0.55162   1.00
H2       0.17650    0.30477    0.50734   1.00
C5       0.18844    0.36617    0.49871   1.00
H2       0.20017    0.36226    0.46863   1.00
H2       0.20605    0.38948    0.51302   1.00
C5       0.14502    0.37762    0.49738   1.00
H2       0.13305    0.38131    0.52732   1.00
H2       0.12762    0.35500    0.48189   1.00
C5       0.14005    0.41657    0.47555   1.00
C5       0.17479    0.19846    0.48895   1.00
C5       0.32816    0.29898    0.38930   1.00
H2       0.19820    0.18855    0.50912   1.00
H2       0.17452    0.17896    0.46288   1.00
H2       0.33073    0.31590    0.41700   1.00
H2       0.30529    0.31347    0.37105   1.00
H2       0.35819    0.32478    0.30970   1.00
H2       0.15174    0.15513    0.55753   1.00
H2       0.13754    0.13120    0.51237   1.00
C2       0.24780    0.25153    0.60395   1.00
C3       0.25764    0.21684    0.58403   1.00
O2       0.25709    0.18148    0.60326   1.00
C3       0.24067    0.28561    0.58174   1.00
H1       0.23407    0.31286    0.59615   1.00
C3a      0.25912    0.21667    0.54287   1.00
H1       0.26450    0.18938    0.52798   1.00
C3b      0.24095    0.28504    0.54078   1.00
C4       0.25014    0.25040    0.52100   1.00
O3       0.17994    0.23791    0.47833   1.00
C5       0.29542    0.16986    0.61280   1.00
H2       0.31384    0.16678    0.58609   1.00
C5       0.29239    0.13047    0.63326   1.00
H2       0.30949    0.19137    0.63274   1.00
H2       0.28857    0.10742    0.61068   1.00
H2       0.26511    0.13076    0.65093   1.00
C5       0.32794    0.12141    0.65918   1.00
H2       0.35514    0.12429    0.64176   1.00
C5       0.32556    0.07961    0.67547   1.00
H2       0.32931    0.14141    0.68493   1.00
C5       0.13564    0.19521    0.50983   1.00
H2       0.11193    0.19856    0.48785   1.00
H2       0.13301    0.22019    0.53048   1.00
C5       0.13154    0.15636    0.53200   1.00
C5       0.08969    0.15205    0.54775   1.00
H2       0.42627    0.31439    0.30714   1.00
C5       0.42244    0.37836    0.31088   1.00
H2       0.43407    0.33502    0.35677   1.00
C5       0.09653    0.42329    0.46663   1.00
H2       0.15145    0.44142    0.49449   1.00
H2       0.15718    0.41558    0.44707   1.00
C5       0.36456    0.06892    0.69503   1.00
H2       0.30106    0.07783    0.69789   1.00
H2       0.31942    0.05837    0.65063   1.00
H2       0.08105    0.17976    0.56398   1.00
H2       0.06876    0.14707    0.52239   1.00
C5       0.08779    0.11703    0.57583   1.00
H2       0.39356    0.38963    0.29884   1.00
H2       0.43357    0.39919    0.33429   1.00
H2       0.44471    0.37642    0.28626   1.00
H2       0.07837    0.39992    0.48180   1.00
H2       0.08745    0.45330    0.47771   1.00
H2       0.09156    0.42162    0.43379   1.00
H2       0.37654    0.09544    0.71111   1.00
H2       0.35968    0.04412    0.71664   1.00
H2       0.38632    0.05926    0.67181   1.00
H2       0.09330    0.12745    0.60693   1.00
H2       0.05771    0.10299    0.57402   1.00
H2       0.11097    0.09474    0.56734   1.00
C5       0.36712    0.70145    0.63218   1.00
H2       0.36825    0.73000    0.64745   1.00
H2       0.39157    0.70182    0.61090   1.00
C5       0.37276    0.66828    0.66194   1.00
C5       0.41631    0.66239    0.67123   1.00
H2       0.36060    0.64056    0.65015   1.00
O3       0.23445    0.68091    0.48000   1.00
C4       0.24986    0.75040    0.52100   1.00
C3c      0.28408    0.74340    0.54243   1.00
H1       0.31119    0.73796    0.52725   1.00
C3d      0.21496    0.75797    0.54135   1.00
C3       0.28385    0.74272    0.58354   1.00
O2       0.31919    0.74044    0.60248   1.00
C3       0.21447    0.75658    0.58227   1.00
H1       0.18674    0.76119    0.59657   1.00
C2       0.24872    0.74912    0.60439   1.00
C5       0.19430    0.67175    0.47879   1.00
H2       0.18357    0.66749    0.44838   1.00
H2       0.17650    0.69523    0.49266   1.00
C5       0.18844    0.63383    0.50129   1.00
H2       0.20017    0.63774    0.53137   1.00
H2       0.20605    0.61052    0.48698   1.00
C5       0.14502    0.62238    0.50262   1.00
H2       0.13305    0.61869    0.47268   1.00
H2       0.12762    0.64500    0.51811   1.00
C5       0.14005    0.58343    0.52445   1.00
C5       0.17479    0.80154    0.51105   1.00
C5       0.32816    0.70102    0.61070   1.00
H2       0.19820    0.81145    0.49088   1.00
H2       0.17452    0.82104    0.53712   1.00
H2       0.33073    0.68410    0.58300   1.00
H2       0.30529    0.68653    0.62895   1.00
H2       0.35819    0.67522    0.69030   1.00
H2       0.15174    0.84487    0.44247   1.00
H2       0.13754    0.86880    0.48763   1.00
C2       0.24780    0.74847    0.39605   1.00
C3       0.25764    0.78316    0.41597   1.00
O2       0.25709    0.81852    0.39674   1.00
C3       0.24067    0.71439    0.41826   1.00
H1       0.23407    0.68714    0.40385   1.00
C3a      0.25912    0.78333    0.45713   1.00
H1       0.26450    0.81062    0.47202   1.00
C3b      0.24095    0.71496    0.45922   1.00
C4       0.25014    0.74960    0.47900   1.00
O3       0.17994    0.76209    0.52167   1.00
C5       0.29542    0.83014    0.38720   1.00
H2       0.31384    0.83322    0.41391   1.00
C5       0.29239    0.86953    0.36674   1.00
H2       0.30949    0.80863    0.36726   1.00
H2       0.28857    0.89258    0.38932   1.00
H2       0.26511    0.86924    0.34907   1.00
C5       0.32794    0.87859    0.34082   1.00
H2       0.35514    0.87571    0.35824   1.00
C5       0.32556    0.92039    0.32453   1.00
H2       0.32931    0.85859    0.31507   1.00
C5       0.13564    0.80479    0.49017   1.00
H2       0.11193    0.80144    0.51215   1.00
H2       0.13301    0.77981    0.46952   1.00
C5       0.13154    0.84364    0.46800   1.00
C5       0.08969    0.84795    0.45225   1.00
H2       0.42627    0.68561    0.69286   1.00
C5       0.42244    0.62164    0.68912   1.00
H2       0.43407    0.66498    0.64323   1.00
C5       0.09653    0.57671    0.53337   1.00
H2       0.15145    0.55858    0.50551   1.00
H2       0.15718    0.58442    0.55293   1.00
C5       0.36456    0.93108    0.30497   1.00
H2       0.30106    0.92217    0.30211   1.00
H2       0.31942    0.94163    0.34937   1.00
H2       0.08105    0.82024    0.43602   1.00
H2       0.06876    0.85293    0.47761   1.00
C5       0.08779    0.88297    0.42417   1.00
H2       0.39356    0.61037    0.70116   1.00
H2       0.43357    0.60081    0.66571   1.00
H2       0.44471    0.62358    0.71374   1.00
H2       0.07837    0.60008    0.51820   1.00
H2       0.08745    0.54670    0.52229   1.00
H2       0.09156    0.57838    0.56621   1.00
H2       0.37654    0.90456    0.28889   1.00
H2       0.35968    0.95588    0.28336   1.00
H2       0.38632    0.94074    0.32819   1.00
H2       0.09330    0.87255    0.39307   1.00
H2       0.05771    0.89701    0.42598   1.00
H2       0.11097    0.90526    0.43266   1.00
C5       0.20145    1.13218    0.36712   1.00
H2       0.23000    1.14745    0.36825   1.00
H2       0.20182    1.11090    0.39157   1.00
C5       0.16828    1.16194    0.37276   1.00
C5       0.16239    1.17123    0.41631   1.00
H2       0.14056    1.15015    0.36060   1.00
O3       0.18091    0.98000    0.23445   1.00
C4       0.25040    1.02100    0.24986   1.00
C3c      0.24340    1.04243    0.28408   1.00
H1       0.23796    1.02725    0.31119   1.00
C3d      0.25797    1.04135    0.21496   1.00
C3       0.24272    1.08354    0.28385   1.00
O2       0.24044    1.10248    0.31919   1.00
C3       0.25658    1.08227    0.21447   1.00
H1       0.26119    1.09657    0.18674   1.00
C2       0.24912    1.10439    0.24872   1.00
C5       0.17175    0.97879    0.19430   1.00
H2       0.16749    0.94838    0.18357   1.00
H2       0.19523    0.99266    0.17650   1.00
C5       0.13383    1.00129    0.18844   1.00
H2       0.13774    1.03137    0.20017   1.00
H2       0.11052    0.98698    0.20605   1.00
C5       0.12238    1.00262    0.14502   1.00
H2       0.11869    0.97268    0.13305   1.00
H2       0.14500    1.01811    0.12762   1.00
C5       0.08343    1.02445    0.14005   1.00
C5       0.30154    1.01105    0.17479   1.00
C5       0.20102    1.11070    0.32816   1.00
H2       0.31145    0.99088    0.19820   1.00
H2       0.32104    1.03712    0.17452   1.00
H2       0.18410    1.08300    0.33073   1.00
H2       0.18653    1.12895    0.30529   1.00
H2       0.17522    1.19030    0.35819   1.00
H2       0.34487    0.94247    0.15174   1.00
H2       0.36880    0.98763    0.13754   1.00
C2       0.24847    0.89605    0.24780   1.00
C3       0.28316    0.91597    0.25764   1.00
O2       0.31852    0.89674    0.25709   1.00
C3       0.21439    0.91826    0.24067   1.00
H1       0.18714    0.90385    0.23407   1.00
C3a      0.28333    0.95713    0.25912   1.00
H1       0.31062    0.97202    0.26450   1.00
C3b      0.21496    0.95922    0.24095   1.00
C4       0.24960    0.97900    0.25014   1.00
O3       0.26209    1.02167    0.17994   1.00
C5       0.33014    0.88720    0.29542   1.00
H2       0.33322    0.91391    0.31384   1.00
C5       0.36953    0.86674    0.29239   1.00
H2       0.30863    0.86726    0.30949   1.00
H2       0.39258    0.88932    0.28857   1.00
H2       0.36924    0.84907    0.26511   1.00
C5       0.37859    0.84082    0.32794   1.00
H2       0.37571    0.85824    0.35514   1.00
C5       0.42039    0.82453    0.32556   1.00
H2       0.35859    0.81507    0.32931   1.00
C5       0.30479    0.99017    0.13564   1.00
H2       0.30144    1.01215    0.11193   1.00
H2       0.27981    0.96952    0.13301   1.00
C5       0.34364    0.96800    0.13154   1.00
C5       0.34795    0.95225    0.08969   1.00
H2       0.18561    1.19286    0.42627   1.00
C5       0.12164    1.18912    0.42244   1.00
H2       0.16498    1.14323    0.43407   1.00
C5       0.07671    1.03337    0.09653   1.00
H2       0.05858    1.00551    0.15145   1.00
H2       0.08442    1.05293    0.15718   1.00
C5       0.43108    0.80497    0.36456   1.00
H2       0.42217    0.80211    0.30106   1.00
H2       0.44163    0.84937    0.31942   1.00
H2       0.32024    0.93602    0.08105   1.00
H2       0.35293    0.97761    0.06876   1.00
C5       0.38297    0.92417    0.08779   1.00
H2       0.11037    1.20116    0.39356   1.00
H2       0.10081    1.16571    0.43357   1.00
H2       0.12358    1.21374    0.44471   1.00
H2       0.10008    1.01820    0.07837   1.00
H2       0.04670    1.02229    0.08745   1.00
H2       0.07838    1.06621    0.09156   1.00
H2       0.40456    0.78889    0.37654   1.00
H2       0.45588    0.78336    0.35968   1.00
H2       0.44074    0.82819    0.38632   1.00
H2       0.37255    0.89307    0.09330   1.00
H2       0.39701    0.92598    0.05771   1.00
H2       0.40526    0.93266    0.11097   1.00
C5       -0.13218   0.86712    0.29855   1.00
H2       -0.14745   0.86825    0.27000   1.00
H2       -0.11090   0.89157    0.29818   1.00
C5       -0.16194   0.87276    0.33172   1.00
C5       -0.17123   0.91631    0.33761   1.00
H2       -0.15015   0.86060    0.35944   1.00
O3       0.02000    0.73445    0.31909   1.00
C4       -0.02100   0.74986    0.24960   1.00
C3c      -0.04243   0.78408    0.25660   1.00
H1       -0.02725   0.81119    0.26204   1.00
C3d      -0.04135   0.71496    0.24203   1.00
C3       -0.08354   0.78385    0.25728   1.00
O2       -0.10248   0.81919    0.25956   1.00
C3       -0.08227   0.71447    0.24342   1.00
H1       -0.09657   0.68674    0.23881   1.00
C2       -0.10439   0.74872    0.25088   1.00
C5       0.02121    0.69430    0.32825   1.00
H2       0.05162    0.68357    0.33251   1.00
H2       0.00734    0.67650    0.30477   1.00
C5       -0.00129   0.68844    0.36617   1.00
H2       -0.03137   0.70017    0.36226   1.00
H2       0.01302    0.70605    0.38948   1.00
C5       -0.00262   0.64502    0.37762   1.00
H2       0.02732    0.63305    0.38131   1.00
H2       -0.01811   0.62762    0.35500   1.00
C5       -0.02445   0.64005    0.41657   1.00
C5       -0.01105   0.67479    0.19846   1.00
C5       -0.11070   0.82816    0.29898   1.00
H2       0.00912    0.69820    0.18855   1.00
H2       -0.03712   0.67452    0.17896   1.00
H2       -0.08300   0.83073    0.31590   1.00
H2       -0.12895   0.80529    0.31347   1.00
H2       -0.19030   0.85819    0.32478   1.00
H2       0.05753    0.65174    0.15513   1.00
H2       0.01237    0.63754    0.13120   1.00
C2       0.10395    0.74780    0.25153   1.00
C3       0.08403    0.75764    0.21684   1.00
O2       0.10326    0.75709    0.18148   1.00
C3       0.08174    0.74067    0.28561   1.00
H1       0.09615    0.73407    0.31286   1.00
C3a      0.04287    0.75912    0.21667   1.00
H1       0.02798    0.76450    0.18938   1.00
C3b      0.04078    0.74095    0.28504   1.00
C4       0.02100    0.75014    0.25040   1.00
O3       -0.02167   0.67994    0.23791   1.00
C5       0.11280    0.79542    0.16986   1.00
H2       0.08609    0.81384    0.16678   1.00
C5       0.13326    0.79239    0.13047   1.00
H2       0.13274    0.80949    0.19137   1.00
H2       0.11068    0.78857    0.10742   1.00
H2       0.15093    0.76511    0.13076   1.00
C5       0.15918    0.82794    0.12141   1.00
H2       0.14176    0.85514    0.12429   1.00
C5       0.17547    0.82556    0.07961   1.00
H2       0.18493    0.82931    0.14141   1.00
C5       0.00983    0.63564    0.19521   1.00
H2       -0.01215   0.61193    0.19856   1.00
H2       0.03048    0.63301    0.22019   1.00
C5       0.03200    0.63154    0.15636   1.00
C5       0.04775    0.58969    0.15205   1.00
H2       -0.19286   0.92627    0.31439   1.00
C5       -0.18912   0.92244    0.37836   1.00
H2       -0.14323   0.93407    0.33502   1.00
C5       -0.03337   0.59653    0.42329   1.00
H2       -0.00551   0.65145    0.44142   1.00
H2       -0.05293   0.65718    0.41558   1.00
C5       0.19503    0.86456    0.06892   1.00
H2       0.19789    0.80106    0.07783   1.00
H2       0.15063    0.81942    0.05837   1.00
H2       0.06398    0.58105    0.17976   1.00
H2       0.02239    0.56876    0.14707   1.00
C5       0.07583    0.58779    0.11703   1.00
H2       -0.20116   0.89356    0.38963   1.00
H2       -0.16571   0.93357    0.39919   1.00
H2       -0.21374   0.94471    0.37642   1.00
H2       -0.01820   0.57837    0.39992   1.00
H2       -0.02229   0.58745    0.45330   1.00
H2       -0.06621   0.59156    0.42162   1.00
H2       0.21111    0.87654    0.09544   1.00
H2       0.21664    0.85968    0.04412   1.00
H2       0.17181    0.88632    0.05926   1.00
H2       0.10693    0.59330    0.12745   1.00
H2       0.07402    0.55771    0.10299   1.00
H2       0.06734    0.61097    0.09474   1.00
C5       0.63218    0.86712    0.20145   1.00
H2       0.64745    0.86825    0.23000   1.00
H2       0.61090    0.89157    0.20182   1.00
C5       0.66194    0.87276    0.16828   1.00
C5       0.67123    0.91631    0.16239   1.00
H2       0.65015    0.86060    0.14056   1.00
O3       0.48000    0.73445    0.18091   1.00
C4       0.52100    0.74986    0.25040   1.00
C3c      0.54243    0.78408    0.24340   1.00
H1       0.52725    0.81119    0.23796   1.00
C3d      0.54135    0.71496    0.25797   1.00
C3       0.58354    0.78385    0.24272   1.00
O2       0.60248    0.81919    0.24044   1.00
C3       0.58227    0.71447    0.25658   1.00
H1       0.59657    0.68674    0.26119   1.00
C2       0.60439    0.74872    0.24912   1.00
C5       0.47879    0.69430    0.17175   1.00
H2       0.44838    0.68357    0.16749   1.00
H2       0.49266    0.67650    0.19523   1.00
C5       0.50129    0.68844    0.13383   1.00
H2       0.53137    0.70017    0.13774   1.00
H2       0.48698    0.70605    0.11052   1.00
C5       0.50262    0.64502    0.12238   1.00
H2       0.47268    0.63305    0.11869   1.00
H2       0.51811    0.62762    0.14500   1.00
C5       0.52445    0.64005    0.08343   1.00
C5       0.51105    0.67479    0.30154   1.00
C5       0.61070    0.82816    0.20102   1.00
H2       0.49088    0.69820    0.31145   1.00
H2       0.53712    0.67452    0.32104   1.00
H2       0.58300    0.83073    0.18410   1.00
H2       0.62895    0.80529    0.18653   1.00
H2       0.69030    0.85819    0.17522   1.00
H2       0.44247    0.65174    0.34487   1.00
H2       0.48763    0.63754    0.36880   1.00
C2       0.39605    0.74780    0.24847   1.00
C3       0.41597    0.75764    0.28316   1.00
O2       0.39674    0.75709    0.31852   1.00
C3       0.41826    0.74067    0.21439   1.00
H1       0.40385    0.73407    0.18714   1.00
C3a      0.45713    0.75912    0.28333   1.00
H1       0.47202    0.76450    0.31062   1.00
C3b      0.45922    0.74095    0.21496   1.00
C4       0.47900    0.75014    0.24960   1.00
O3       0.52167    0.67994    0.26209   1.00
C5       0.38720    0.79542    0.33014   1.00
H2       0.41391    0.81384    0.33322   1.00
C5       0.36674    0.79239    0.36953   1.00
H2       0.36726    0.80949    0.30863   1.00
H2       0.38932    0.78857    0.39258   1.00
H2       0.34907    0.76511    0.36924   1.00
C5       0.34082    0.82794    0.37859   1.00
H2       0.35824    0.85514    0.37571   1.00
C5       0.32453    0.82556    0.42039   1.00
H2       0.31507    0.82931    0.35859   1.00
C5       0.49017    0.63564    0.30479   1.00
H2       0.51215    0.61193    0.30144   1.00
H2       0.46952    0.63301    0.27981   1.00
C5       0.46800    0.63154    0.34364   1.00
C5       0.45225    0.58969    0.34795   1.00
H2       0.69286    0.92627    0.18561   1.00
C5       0.68912    0.92244    0.12164   1.00
H2       0.64323    0.93407    0.16498   1.00
C5       0.53337    0.59653    0.07671   1.00
H2       0.50551    0.65145    0.05858   1.00
H2       0.55293    0.65718    0.08442   1.00
C5       0.30497    0.86456    0.43108   1.00
H2       0.30211    0.80106    0.42217   1.00
H2       0.34937    0.81942    0.44163   1.00
H2       0.43602    0.58105    0.32024   1.00
H2       0.47761    0.56876    0.35293   1.00
C5       0.42417    0.58779    0.38297   1.00
H2       0.70116    0.89356    0.11037   1.00
H2       0.66571    0.93357    0.10081   1.00
H2       0.71374    0.94471    0.12358   1.00
H2       0.51820    0.57837    0.10008   1.00
H2       0.52229    0.58745    0.04670   1.00
H2       0.56621    0.59156    0.07838   1.00
H2       0.28889    0.87654    0.40456   1.00
H2       0.28336    0.85968    0.45588   1.00
H2       0.32819    0.88632    0.44074   1.00
H2       0.39307    0.59330    0.37255   1.00
H2       0.42598    0.55771    0.39701   1.00
H2       0.43266    0.61097    0.40526   1.00
C5       0.29855    0.36782    0.36712   1.00
H2       0.27000    0.35255    0.36825   1.00
H2       0.29818    0.38910    0.39157   1.00
C5       0.33172    0.33806    0.37276   1.00
C5       0.33761    0.32877    0.41631   1.00
H2       0.35944    0.34985    0.36060   1.00
O3       0.31909    0.52000    0.23445   1.00
C4       0.24960    0.47900    0.24986   1.00
C3c      0.25660    0.45757    0.28408   1.00
H1       0.26204    0.47275    0.31119   1.00
C3d      0.24203    0.45865    0.21496   1.00
C3       0.25728    0.41646    0.28385   1.00
O2       0.25956    0.39752    0.31919   1.00
C3       0.24342    0.41773    0.21447   1.00
H1       0.23881    0.40343    0.18674   1.00
C2       0.25088    0.39561    0.24872   1.00
C5       0.32825    0.52121    0.19430   1.00
H2       0.33251    0.55162    0.18357   1.00
H2       0.30477    0.50734    0.17650   1.00
C5       0.36617    0.49871    0.18844   1.00
H2       0.36226    0.46863    0.20017   1.00
H2       0.38948    0.51302    0.20605   1.00
C5       0.37762    0.49738    0.14502   1.00
H2       0.38131    0.52732    0.13305   1.00
H2       0.35500    0.48189    0.12762   1.00
C5       0.41657    0.47555    0.14005   1.00
C5       0.19846    0.48895    0.17479   1.00
C5       0.29898    0.38930    0.32816   1.00
H2       0.18855    0.50912    0.19820   1.00
H2       0.17896    0.46288    0.17452   1.00
H2       0.31590    0.41700    0.33073   1.00
H2       0.31347    0.37105    0.30529   1.00
H2       0.32478    0.30970    0.35819   1.00
H2       0.15513    0.55753    0.15174   1.00
H2       0.13120    0.51237    0.13754   1.00
C2       0.25153    0.60395    0.24780   1.00
C3       0.21684    0.58403    0.25764   1.00
O2       0.18148    0.60326    0.25709   1.00
C3       0.28561    0.58174    0.24067   1.00
H1       0.31286    0.59615    0.23407   1.00
C3a      0.21667    0.54287    0.25912   1.00
H1       0.18938    0.52798    0.26450   1.00
C3b      0.28504    0.54078    0.24095   1.00
C4       0.25040    0.52100    0.25014   1.00
O3       0.23791    0.47833    0.17994   1.00
C5       0.16986    0.61280    0.29542   1.00
H2       0.16678    0.58609    0.31384   1.00
C5       0.13047    0.63326    0.29239   1.00
H2       0.19137    0.63274    0.30949   1.00
H2       0.10742    0.61068    0.28857   1.00
H2       0.13076    0.65093    0.26511   1.00
C5       0.12141    0.65918    0.32794   1.00
H2       0.12429    0.64176    0.35514   1.00
C5       0.07961    0.67547    0.32556   1.00
H2       0.14141    0.68493    0.32931   1.00
C5       0.19521    0.50983    0.13564   1.00
H2       0.19856    0.48785    0.11193   1.00
H2       0.22019    0.53048    0.13301   1.00
C5       0.15636    0.53200    0.13154   1.00
C5       0.15205    0.54775    0.08969   1.00
H2       0.31439    0.30714    0.42627   1.00
C5       0.37836    0.31088    0.42244   1.00
H2       0.33502    0.35677    0.43407   1.00
C5       0.42329    0.46663    0.09653   1.00
H2       0.44142    0.49449    0.15145   1.00
H2       0.41558    0.44707    0.15718   1.00
C5       0.06892    0.69503    0.36456   1.00
H2       0.07783    0.69789    0.30106   1.00
H2       0.05837    0.65063    0.31942   1.00
H2       0.17976    0.56398    0.08105   1.00
H2       0.14707    0.52239    0.06876   1.00
C5       0.11703    0.57583    0.08779   1.00
H2       0.38963    0.29884    0.39356   1.00
H2       0.39919    0.33429    0.43357   1.00
H2       0.37642    0.28626    0.44471   1.00
H2       0.39992    0.48180    0.07837   1.00
H2       0.45330    0.47771    0.08745   1.00
H2       0.42162    0.43379    0.09156   1.00
H2       0.09544    0.71111    0.37654   1.00
H2       0.04412    0.71664    0.35968   1.00
H2       0.05926    0.67181    0.38632   1.00
H2       0.12745    0.60693    0.09330   1.00
H2       0.10299    0.57402    0.05771   1.00
H2       0.09474    0.56734    0.11097   1.00
C5       0.36712    0.79855    -0.13218   1.00
H2       0.36825    0.77000    -0.14745   1.00
H2       0.39157    0.79818    -0.11090   1.00
C5       0.37276    0.83172    -0.16194   1.00
C5       0.41631    0.83761    -0.17123   1.00
H2       0.36060    0.85944    -0.15015   1.00
O3       0.23445    0.81909    0.02000   1.00
C4       0.24986    0.74960    -0.02100   1.00
C3c      0.28408    0.75660    -0.04243   1.00
H1       0.31119    0.76204    -0.02725   1.00
C3d      0.21496    0.74203    -0.04135   1.00
C3       0.28385    0.75728    -0.08354   1.00
O2       0.31919    0.75956    -0.10248   1.00
C3       0.21447    0.74342    -0.08227   1.00
H1       0.18674    0.73881    -0.09657   1.00
C2       0.24872    0.75088    -0.10439   1.00
C5       0.19430    0.82825    0.02121   1.00
H2       0.18357    0.83251    0.05162   1.00
H2       0.17650    0.80477    0.00734   1.00
C5       0.18844    0.86617    -0.00129   1.00
H2       0.20017    0.86226    -0.03137   1.00
H2       0.20605    0.88948    0.01302   1.00
C5       0.14502    0.87762    -0.00262   1.00
H2       0.13305    0.88131    0.02732   1.00
H2       0.12762    0.85500    -0.01811   1.00
C5       0.14005    0.91657    -0.02445   1.00
C5       0.17479    0.69846    -0.01105   1.00
C5       0.32816    0.79898    -0.11070   1.00
H2       0.19820    0.68855    0.00912   1.00
H2       0.17452    0.67896    -0.03712   1.00
H2       0.33073    0.81590    -0.08300   1.00
H2       0.30529    0.81347    -0.12895   1.00
H2       0.35819    0.82478    -0.19030   1.00
H2       0.15174    0.65513    0.05753   1.00
H2       0.13754    0.63120    0.01237   1.00
C2       0.24780    0.75153    0.10395   1.00
C3       0.25764    0.71684    0.08403   1.00
O2       0.25709    0.68148    0.10326   1.00
C3       0.24067    0.78561    0.08174   1.00
H1       0.23407    0.81286    0.09615   1.00
C3a      0.25912    0.71667    0.04287   1.00
H1       0.26450    0.68938    0.02798   1.00
C3b      0.24095    0.78504    0.04078   1.00
C4       0.25014    0.75040    0.02100   1.00
O3       0.17994    0.73791    -0.02167   1.00
C5       0.29542    0.66986    0.11280   1.00
H2       0.31384    0.66678    0.08609   1.00
C5       0.29239    0.63047    0.13326   1.00
H2       0.30949    0.69137    0.13274   1.00
H2       0.28857    0.60742    0.11068   1.00
H2       0.26511    0.63076    0.15093   1.00
C5       0.32794    0.62141    0.15918   1.00
H2       0.35514    0.62429    0.14176   1.00
C5       0.32556    0.57961    0.17547   1.00
H2       0.32931    0.64141    0.18493   1.00
C5       0.13564    0.69521    0.00983   1.00
H2       0.11193    0.69856    -0.01215   1.00
H2       0.13301    0.72019    0.03048   1.00
C5       0.13154    0.65636    0.03200   1.00
C5       0.08969    0.65205    0.04775   1.00
H2       0.42627    0.81439    -0.19286   1.00
C5       0.42244    0.87836    -0.18912   1.00
H2       0.43407    0.83502    -0.14323   1.00
C5       0.09653    0.92329    -0.03337   1.00
H2       0.15145    0.94142    -0.00551   1.00
H2       0.15718    0.91558    -0.05293   1.00
C5       0.36456    0.56892    0.19503   1.00
H2       0.30106    0.57783    0.19789   1.00
H2       0.31942    0.55837    0.15063   1.00
H2       0.08105    0.67976    0.06398   1.00
H2       0.06876    0.64707    0.02239   1.00
C5       0.08779    0.61703    0.07583   1.00
H2       0.39356    0.88963    -0.20116   1.00
H2       0.43357    0.89919    -0.16571   1.00
H2       0.44471    0.87642    -0.21374   1.00
H2       0.07837    0.89992    -0.01820   1.00
H2       0.08745    0.95330    -0.02229   1.00
H2       0.09156    0.92162    -0.06621   1.00
H2       0.37654    0.59544    0.21111   1.00
H2       0.35968    0.54412    0.21664   1.00
H2       0.38632    0.55926    0.17181   1.00
H2       0.09330    0.62745    0.10693   1.00
H2       0.05771    0.60299    0.07402   1.00
H2       0.11097    0.59474    0.06734   1.00
C5       0.86712    0.20145    0.63218   1.00
H2       0.86825    0.23000    0.64745   1.00
H2       0.89157    0.20182    0.61090   1.00
C5       0.87276    0.16828    0.66194   1.00
C5       0.91631    0.16239    0.67123   1.00
H2       0.86060    0.14056    0.65015   1.00
O3       0.73445    0.18091    0.48000   1.00
C4       0.74986    0.25040    0.52100   1.00
C3c      0.78408    0.24340    0.54243   1.00
H1       0.81119    0.23796    0.52725   1.00
C3d      0.71496    0.25797    0.54135   1.00
C3       0.78385    0.24272    0.58354   1.00
O2       0.81919    0.24044    0.60248   1.00
C3       0.71447    0.25658    0.58227   1.00
H1       0.68674    0.26119    0.59657   1.00
C2       0.74872    0.24912    0.60439   1.00
C5       0.69430    0.17175    0.47879   1.00
H2       0.68357    0.16749    0.44838   1.00
H2       0.67650    0.19523    0.49266   1.00
C5       0.68844    0.13383    0.50129   1.00
H2       0.70017    0.13774    0.53137   1.00
H2       0.70605    0.11052    0.48698   1.00
C5       0.64502    0.12238    0.50262   1.00
H2       0.63305    0.11869    0.47268   1.00
H2       0.62762    0.14500    0.51811   1.00
C5       0.64005    0.08343    0.52445   1.00
C5       0.67479    0.30154    0.51105   1.00
C5       0.82816    0.20102    0.61070   1.00
H2       0.69820    0.31145    0.49088   1.00
H2       0.67452    0.32104    0.53712   1.00
H2       0.83073    0.18410    0.58300   1.00
H2       0.80529    0.18653    0.62895   1.00
H2       0.85819    0.17522    0.69030   1.00
H2       0.65174    0.34487    0.44247   1.00
H2       0.63754    0.36880    0.48763   1.00
C2       0.74780    0.24847    0.39605   1.00
C3       0.75764    0.28316    0.41597   1.00
O2       0.75709    0.31852    0.39674   1.00
C3       0.74067    0.21439    0.41826   1.00
H1       0.73407    0.18714    0.40385   1.00
C3a      0.75912    0.28333    0.45713   1.00
H1       0.76450    0.31062    0.47202   1.00
C3b      0.74095    0.21496    0.45922   1.00
C4       0.75014    0.24960    0.47900   1.00
O3       0.67994    0.26209    0.52167   1.00
C5       0.79542    0.33014    0.38720   1.00
H2       0.81384    0.33322    0.41391   1.00
C5       0.79239    0.36953    0.36674   1.00
H2       0.80949    0.30863    0.36726   1.00
H2       0.78857    0.39258    0.38932   1.00
H2       0.76511    0.36924    0.34907   1.00
C5       0.82794    0.37859    0.34082   1.00
H2       0.85514    0.37571    0.35824   1.00
C5       0.82556    0.42039    0.32453   1.00
H2       0.82931    0.35859    0.31507   1.00
C5       0.63564    0.30479    0.49017   1.00
H2       0.61193    0.30144    0.51215   1.00
H2       0.63301    0.27981    0.46952   1.00
C5       0.63154    0.34364    0.46800   1.00
C5       0.58969    0.34795    0.45225   1.00
H2       0.92627    0.18561    0.69286   1.00
C5       0.92244    0.12164    0.68912   1.00
H2       0.93407    0.16498    0.64323   1.00
C5       0.59653    0.07671    0.53337   1.00
H2       0.65145    0.05858    0.50551   1.00
H2       0.65718    0.08442    0.55293   1.00
C5       0.86456    0.43108    0.30497   1.00
H2       0.80106    0.42217    0.30211   1.00
H2       0.81942    0.44163    0.34937   1.00
H2       0.58105    0.32024    0.43602   1.00
H2       0.56876    0.35293    0.47761   1.00
C5       0.58779    0.38297    0.42417   1.00
H2       0.89356    0.11037    0.70116   1.00
H2       0.93357    0.10081    0.66571   1.00
H2       0.94471    0.12358    0.71374   1.00
H2       0.57837    0.10008    0.51820   1.00
H2       0.58745    0.04670    0.52229   1.00
H2       0.59156    0.07838    0.56621   1.00
H2       0.87654    0.40456    0.28889   1.00
H2       0.85968    0.45588    0.28336   1.00
H2       0.88632    0.44074    0.32819   1.00
H2       0.59330    0.37255    0.39307   1.00
H2       0.55771    0.39701    0.42598   1.00
H2       0.61097    0.40526    0.43266   1.00
C5       0.70145    0.63218    0.36712   1.00
H2       0.73000    0.64745    0.36825   1.00
H2       0.70182    0.61090    0.39157   1.00
C5       0.66828    0.66194    0.37276   1.00
C5       0.66239    0.67123    0.41631   1.00
H2       0.64056    0.65015    0.36060   1.00
O3       0.68091    0.48000    0.23445   1.00
C4       0.75040    0.52100    0.24986   1.00
C3c      0.74340    0.54243    0.28408   1.00
H1       0.73796    0.52725    0.31119   1.00
C3d      0.75797    0.54135    0.21496   1.00
C3       0.74272    0.58354    0.28385   1.00
O2       0.74044    0.60248    0.31919   1.00
C3       0.75658    0.58227    0.21447   1.00
H1       0.76119    0.59657    0.18674   1.00
C2       0.74912    0.60439    0.24872   1.00
C5       0.67175    0.47879    0.19430   1.00
H2       0.66749    0.44838    0.18357   1.00
H2       0.69523    0.49266    0.17650   1.00
C5       0.63383    0.50129    0.18844   1.00
H2       0.63774    0.53137    0.20017   1.00
H2       0.61052    0.48698    0.20605   1.00
C5       0.62238    0.50262    0.14502   1.00
H2       0.61869    0.47268    0.13305   1.00
H2       0.64500    0.51811    0.12762   1.00
C5       0.58343    0.52445    0.14005   1.00
C5       0.80154    0.51105    0.17479   1.00
C5       0.70102    0.61070    0.32816   1.00
H2       0.81145    0.49088    0.19820   1.00
H2       0.82104    0.53712    0.17452   1.00
H2       0.68410    0.58300    0.33073   1.00
H2       0.68653    0.62895    0.30529   1.00
H2       0.67522    0.69030    0.35819   1.00
H2       0.84487    0.44247    0.15174   1.00
H2       0.86880    0.48763    0.13754   1.00
C2       0.74847    0.39605    0.24780   1.00
C3       0.78316    0.41597    0.25764   1.00
O2       0.81852    0.39674    0.25709   1.00
C3       0.71439    0.41826    0.24067   1.00
H1       0.68714    0.40385    0.23407   1.00
C3a      0.78333    0.45713    0.25912   1.00
H1       0.81062    0.47202    0.26450   1.00
C3b      0.71496    0.45922    0.24095   1.00
C4       0.74960    0.47900    0.25014   1.00
O3       0.76209    0.52167    0.17994   1.00
C5       0.83014    0.38720    0.29542   1.00
H2       0.83322    0.41391    0.31384   1.00
C5       0.86953    0.36674    0.29239   1.00
H2       0.80863    0.36726    0.30949   1.00
H2       0.89258    0.38932    0.28857   1.00
H2       0.86924    0.34907    0.26511   1.00
C5       0.87859    0.34082    0.32794   1.00
H2       0.87571    0.35824    0.35514   1.00
C5       0.92039    0.32453    0.32556   1.00
H2       0.85859    0.31507    0.32931   1.00
C5       0.80479    0.49017    0.13564   1.00
H2       0.80144    0.51215    0.11193   1.00
H2       0.77981    0.46952    0.13301   1.00
C5       0.84364    0.46800    0.13154   1.00
C5       0.84795    0.45225    0.08969   1.00
H2       0.68561    0.69286    0.42627   1.00
C5       0.62164    0.68912    0.42244   1.00
H2       0.66498    0.64323    0.43407   1.00
C5       0.57671    0.53337    0.09653   1.00
H2       0.55858    0.50551    0.15145   1.00
H2       0.58442    0.55293    0.15718   1.00
C5       0.93108    0.30497    0.36456   1.00
H2       0.92217    0.30211    0.30106   1.00
H2       0.94163    0.34937    0.31942   1.00
H2       0.82024    0.43602    0.08105   1.00
H2       0.85293    0.47761    0.06876   1.00
C5       0.88297    0.42417    0.08779   1.00
H2       0.61037    0.70116    0.39356   1.00
H2       0.60081    0.66571    0.43357   1.00
H2       0.62358    0.71374    0.44471   1.00
H2       0.60008    0.51820    0.07837   1.00
H2       0.54670    0.52229    0.08745   1.00
H2       0.57838    0.56621    0.09156   1.00
H2       0.90456    0.28889    0.37654   1.00
H2       0.95588    0.28336    0.35968   1.00
H2       0.94074    0.32819    0.38632   1.00
H2       0.87255    0.39307    0.09330   1.00
H2       0.89701    0.42598    0.05771   1.00
H2       0.90526    0.43266    0.11097   1.00
C5       0.36782    0.36712    0.29855   1.00
H2       0.35255    0.36825    0.27000   1.00
H2       0.38910    0.39157    0.29818   1.00
C5       0.33806    0.37276    0.33172   1.00
C5       0.32877    0.41631    0.33761   1.00
H2       0.34985    0.36060    0.35944   1.00
O3       0.52000    0.23445    0.31909   1.00
C4       0.47900    0.24986    0.24960   1.00
C3c      0.45757    0.28408    0.25660   1.00
H1       0.47275    0.31119    0.26204   1.00
C3d      0.45865    0.21496    0.24203   1.00
C3       0.41646    0.28385    0.25728   1.00
O2       0.39752    0.31919    0.25956   1.00
C3       0.41773    0.21447    0.24342   1.00
H1       0.40343    0.18674    0.23881   1.00
C2       0.39561    0.24872    0.25088   1.00
C5       0.52121    0.19430    0.32825   1.00
H2       0.55162    0.18357    0.33251   1.00
H2       0.50734    0.17650    0.30477   1.00
C5       0.49871    0.18844    0.36617   1.00
H2       0.46863    0.20017    0.36226   1.00
H2       0.51302    0.20605    0.38948   1.00
C5       0.49738    0.14502    0.37762   1.00
H2       0.52732    0.13305    0.38131   1.00
H2       0.48189    0.12762    0.35500   1.00
C5       0.47555    0.14005    0.41657   1.00
C5       0.48895    0.17479    0.19846   1.00
C5       0.38930    0.32816    0.29898   1.00
H2       0.50912    0.19820    0.18855   1.00
H2       0.46288    0.17452    0.17896   1.00
H2       0.41700    0.33073    0.31590   1.00
H2       0.37105    0.30529    0.31347   1.00
H2       0.30970    0.35819    0.32478   1.00
H2       0.55753    0.15174    0.15513   1.00
H2       0.51237    0.13754    0.13120   1.00
C2       0.60395    0.24780    0.25153   1.00
C3       0.58403    0.25764    0.21684   1.00
O2       0.60326    0.25709    0.18148   1.00
C3       0.58174    0.24067    0.28561   1.00
H1       0.59615    0.23407    0.31286   1.00
C3a      0.54287    0.25912    0.21667   1.00
H1       0.52798    0.26450    0.18938   1.00
C3b      0.54078    0.24095    0.28504   1.00
C4       0.52100    0.25014    0.25040   1.00
O3       0.47833    0.17994    0.23791   1.00
C5       0.61280    0.29542    0.16986   1.00
H2       0.58609    0.31384    0.16678   1.00
C5       0.63326    0.29239    0.13047   1.00
H2       0.63274    0.30949    0.19137   1.00
H2       0.61068    0.28857    0.10742   1.00
H2       0.65093    0.26511    0.13076   1.00
C5       0.65918    0.32794    0.12141   1.00
H2       0.64176    0.35514    0.12429   1.00
C5       0.67547    0.32556    0.07961   1.00
H2       0.68493    0.32931    0.14141   1.00
C5       0.50983    0.13564    0.19521   1.00
H2       0.48785    0.11193    0.19856   1.00
H2       0.53048    0.13301    0.22019   1.00
C5       0.53200    0.13154    0.15636   1.00
C5       0.54775    0.08969    0.15205   1.00
H2       0.30714    0.42627    0.31439   1.00
C5       0.31088    0.42244    0.37836   1.00
H2       0.35677    0.43407    0.33502   1.00
C5       0.46663    0.09653    0.42329   1.00
H2       0.49449    0.15145    0.44142   1.00
H2       0.44707    0.15718    0.41558   1.00
C5       0.69503    0.36456    0.06892   1.00
H2       0.69789    0.30106    0.07783   1.00
H2       0.65063    0.31942    0.05837   1.00
H2       0.56398    0.08105    0.17976   1.00
H2       0.52239    0.06876    0.14707   1.00
C5       0.57583    0.08779    0.11703   1.00
H2       0.29884    0.39356    0.38963   1.00
H2       0.33429    0.43357    0.39919   1.00
H2       0.28626    0.44471    0.37642   1.00
H2       0.48180    0.07837    0.39992   1.00
H2       0.47771    0.08745    0.45330   1.00
H2       0.43379    0.09156    0.42162   1.00
H2       0.71111    0.37654    0.09544   1.00
H2       0.71664    0.35968    0.04412   1.00
H2       0.67181    0.38632    0.05926   1.00
H2       0.60693    0.09330    0.12745   1.00
H2       0.57402    0.05771    0.10299   1.00
H2       0.56734    0.11097    0.09474   1.00
C5       1.13218    0.36712    0.20145   1.00
H2       1.14745    0.36825    0.23000   1.00
H2       1.11090    0.39157    0.20182   1.00
C5       1.16194    0.37276    0.16828   1.00
C5       1.17123    0.41631    0.16239   1.00
H2       1.15015    0.36060    0.14056   1.00
O3       0.98000    0.23445    0.18091   1.00
C4       1.02100    0.24986    0.25040   1.00
C3c      1.04243    0.28408    0.24340   1.00
H1       1.02725    0.31119    0.23796   1.00
C3d      1.04135    0.21496    0.25797   1.00
C3       1.08354    0.28385    0.24272   1.00
O2       1.10248    0.31919    0.24044   1.00
C3       1.08227    0.21447    0.25658   1.00
H1       1.09657    0.18674    0.26119   1.00
C2       1.10439    0.24872    0.24912   1.00
C5       0.97879    0.19430    0.17175   1.00
H2       0.94838    0.18357    0.16749   1.00
H2       0.99266    0.17650    0.19523   1.00
C5       1.00129    0.18844    0.13383   1.00
H2       1.03137    0.20017    0.13774   1.00
H2       0.98698    0.20605    0.11052   1.00
C5       1.00262    0.14502    0.12238   1.00
H2       0.97268    0.13305    0.11869   1.00
H2       1.01811    0.12762    0.14500   1.00
C5       1.02445    0.14005    0.08343   1.00
C5       1.01105    0.17479    0.30154   1.00
C5       1.11070    0.32816    0.20102   1.00
H2       0.99088    0.19820    0.31145   1.00
H2       1.03712    0.17452    0.32104   1.00
H2       1.08300    0.33073    0.18410   1.00
H2       1.12895    0.30529    0.18653   1.00
H2       1.19030    0.35819    0.17522   1.00
H2       0.94247    0.15174    0.34487   1.00
H2       0.98763    0.13754    0.36880   1.00
C2       0.89605    0.24780    0.24847   1.00
C3       0.91597    0.25764    0.28316   1.00
O2       0.89674    0.25709    0.31852   1.00
C3       0.91826    0.24067    0.21439   1.00
H1       0.90385    0.23407    0.18714   1.00
C3a      0.95713    0.25912    0.28333   1.00
H1       0.97202    0.26450    0.31062   1.00
C3b      0.95922    0.24095    0.21496   1.00
C4       0.97900    0.25014    0.24960   1.00
O3       1.02167    0.17994    0.26209   1.00
C5       0.88720    0.29542    0.33014   1.00
H2       0.91391    0.31384    0.33322   1.00
C5       0.86674    0.29239    0.36953   1.00
H2       0.86726    0.30949    0.30863   1.00
H2       0.88932    0.28857    0.39258   1.00
H2       0.84907    0.26511    0.36924   1.00
C5       0.84082    0.32794    0.37859   1.00
H2       0.85824    0.35514    0.37571   1.00
C5       0.82453    0.32556    0.42039   1.00
H2       0.81507    0.32931    0.35859   1.00
C5       0.99017    0.13564    0.30479   1.00
H2       1.01215    0.11193    0.30144   1.00
H2       0.96952    0.13301    0.27981   1.00
C5       0.96800    0.13154    0.34364   1.00
C5       0.95225    0.08969    0.34795   1.00
H2       1.19286    0.42627    0.18561   1.00
C5       1.18912    0.42244    0.12164   1.00
H2       1.14323    0.43407    0.16498   1.00
C5       1.03337    0.09653    0.07671   1.00
H2       1.00551    0.15145    0.05858   1.00
H2       1.05293    0.15718    0.08442   1.00
C5       0.80497    0.36456    0.43108   1.00
H2       0.80211    0.30106    0.42217   1.00
H2       0.84937    0.31942    0.44163   1.00
H2       0.93602    0.08105    0.32024   1.00
H2       0.97761    0.06876    0.35293   1.00
C5       0.92417    0.08779    0.38297   1.00
H2       1.20116    0.39356    0.11037   1.00
H2       1.16571    0.43357    0.10081   1.00
H2       1.21374    0.44471    0.12358   1.00
H2       1.01820    0.07837    0.10008   1.00
H2       1.02229    0.08745    0.04670   1.00
H2       1.06621    0.09156    0.07838   1.00
H2       0.78889    0.37654    0.40456   1.00
H2       0.78336    0.35968    0.45588   1.00
H2       0.82819    0.38632    0.44074   1.00
H2       0.89307    0.09330    0.37255   1.00
H2       0.92598    0.05771    0.39701   1.00
H2       0.93266    0.11097    0.40526   1.00
C5       0.79855    -0.13218   0.36712   1.00
H2       0.77000    -0.14745   0.36825   1.00
H2       0.79818    -0.11090   0.39157   1.00
C5       0.83172    -0.16194   0.37276   1.00
C5       0.83761    -0.17123   0.41631   1.00
H2       0.85944    -0.15015   0.36060   1.00
O3       0.81909    0.02000    0.23445   1.00
C4       0.74960    -0.02100   0.24986   1.00
C3c      0.75660    -0.04243   0.28408   1.00
H1       0.76204    -0.02725   0.31119   1.00
C3d      0.74203    -0.04135   0.21496   1.00
C3       0.75728    -0.08354   0.28385   1.00
O2       0.75956    -0.10248   0.31919   1.00
C3       0.74342    -0.08227   0.21447   1.00
H1       0.73881    -0.09657   0.18674   1.00
C2       0.75088    -0.10439   0.24872   1.00
C5       0.82825    0.02121    0.19430   1.00
H2       0.83251    0.05162    0.18357   1.00
H2       0.80477    0.00734    0.17650   1.00
C5       0.86617    -0.00129   0.18844   1.00
H2       0.86226    -0.03137   0.20017   1.00
H2       0.88948    0.01302    0.20605   1.00
C5       0.87762    -0.00262   0.14502   1.00
H2       0.88131    0.02732    0.13305   1.00
H2       0.85500    -0.01811   0.12762   1.00
C5       0.91657    -0.02445   0.14005   1.00
C5       0.69846    -0.01105   0.17479   1.00
C5       0.79898    -0.11070   0.32816   1.00
H2       0.68855    0.00912    0.19820   1.00
H2       0.67896    -0.03712   0.17452   1.00
H2       0.81590    -0.08300   0.33073   1.00
H2       0.81347    -0.12895   0.30529   1.00
H2       0.82478    -0.19030   0.35819   1.00
H2       0.65513    0.05753    0.15174   1.00
H2       0.63120    0.01237    0.13754   1.00
C2       0.75153    0.10395    0.24780   1.00
C3       0.71684    0.08403    0.25764   1.00
O2       0.68148    0.10326    0.25709   1.00
C3       0.78561    0.08174    0.24067   1.00
H1       0.81286    0.09615    0.23407   1.00
C3a      0.71667    0.04287    0.25912   1.00
H1       0.68938    0.02798    0.26450   1.00
C3b      0.78504    0.04078    0.24095   1.00
C4       0.75040    0.02100    0.25014   1.00
O3       0.73791    -0.02167   0.17994   1.00
C5       0.66986    0.11280    0.29542   1.00
H2       0.66678    0.08609    0.31384   1.00
C5       0.63047    0.13326    0.29239   1.00
H2       0.69137    0.13274    0.30949   1.00
H2       0.60742    0.11068    0.28857   1.00
H2       0.63076    0.15093    0.26511   1.00
C5       0.62141    0.15918    0.32794   1.00
H2       0.62429    0.14176    0.35514   1.00
C5       0.57961    0.17547    0.32556   1.00
H2       0.64141    0.18493    0.32931   1.00
C5       0.69521    0.00983    0.13564   1.00
H2       0.69856    -0.01215   0.11193   1.00
H2       0.72019    0.03048    0.13301   1.00
C5       0.65636    0.03200    0.13154   1.00
C5       0.65205    0.04775    0.08969   1.00
H2       0.81439    -0.19286   0.42627   1.00
C5       0.87836    -0.18912   0.42244   1.00
H2       0.83502    -0.14323   0.43407   1.00
C5       0.92329    -0.03337   0.09653   1.00
H2       0.94142    -0.00551   0.15145   1.00
H2       0.91558    -0.05293   0.15718   1.00
C5       0.56892    0.19503    0.36456   1.00
H2       0.57783    0.19789    0.30106   1.00
H2       0.55837    0.15063    0.31942   1.00
H2       0.67976    0.06398    0.08105   1.00
H2       0.64707    0.02239    0.06876   1.00
C5       0.61703    0.07583    0.08779   1.00
H2       0.88963    -0.20116   0.39356   1.00
H2       0.89919    -0.16571   0.43357   1.00
H2       0.87642    -0.21374   0.44471   1.00
H2       0.89992    -0.01820   0.07837   1.00
H2       0.95330    -0.02229   0.08745   1.00
H2       0.92162    -0.06621   0.09156   1.00
H2       0.59544    0.21111    0.37654   1.00
H2       0.54412    0.21664    0.35968   1.00
H2       0.55926    0.17181    0.38632   1.00
H2       0.62745    0.10693    0.09330   1.00
H2       0.60299    0.07402    0.05771   1.00
H2       0.59474    0.06734    0.11097   1.00
C5       0.86712    0.29855    -0.13218   1.00
H2       0.86825    0.27000    -0.14745   1.00
H2       0.89157    0.29818    -0.11090   1.00
C5       0.87276    0.33172    -0.16194   1.00
C5       0.91631    0.33761    -0.17123   1.00
H2       0.86060    0.35944    -0.15015   1.00
O3       0.73445    0.31909    0.02000   1.00
C4       0.74986    0.24960    -0.02100   1.00
C3c      0.78408    0.25660    -0.04243   1.00
H1       0.81119    0.26204    -0.02725   1.00
C3d      0.71496    0.24203    -0.04135   1.00
C3       0.78385    0.25728    -0.08354   1.00
O2       0.81919    0.25956    -0.10248   1.00
C3       0.71447    0.24342    -0.08227   1.00
H1       0.68674    0.23881    -0.09657   1.00
C2       0.74872    0.25088    -0.10439   1.00
C5       0.69430    0.32825    0.02121   1.00
H2       0.68357    0.33251    0.05162   1.00
H2       0.67650    0.30477    0.00734   1.00
C5       0.68844    0.36617    -0.00129   1.00
H2       0.70017    0.36226    -0.03137   1.00
H2       0.70605    0.38948    0.01302   1.00
C5       0.64502    0.37762    -0.00262   1.00
H2       0.63305    0.38131    0.02732   1.00
H2       0.62762    0.35500    -0.01811   1.00
C5       0.64005    0.41657    -0.02445   1.00
C5       0.67479    0.19846    -0.01105   1.00
C5       0.82816    0.29898    -0.11070   1.00
H2       0.69820    0.18855    0.00912   1.00
H2       0.67452    0.17896    -0.03712   1.00
H2       0.83073    0.31590    -0.08300   1.00
H2       0.80529    0.31347    -0.12895   1.00
H2       0.85819    0.32478    -0.19030   1.00
H2       0.65174    0.15513    0.05753   1.00
H2       0.63754    0.13120    0.01237   1.00
C2       0.74780    0.25153    0.10395   1.00
C3       0.75764    0.21684    0.08403   1.00
O2       0.75709    0.18148    0.10326   1.00
C3       0.74067    0.28561    0.08174   1.00
H1       0.73407    0.31286    0.09615   1.00
C3a      0.75912    0.21667    0.04287   1.00
H1       0.76450    0.18938    0.02798   1.00
C3b      0.74095    0.28504    0.04078   1.00
C4       0.75014    0.25040    0.02100   1.00
O3       0.67994    0.23791    -0.02167   1.00
C5       0.79542    0.16986    0.11280   1.00
H2       0.81384    0.16678    0.08609   1.00
C5       0.79239    0.13047    0.13326   1.00
H2       0.80949    0.19137    0.13274   1.00
H2       0.78857    0.10742    0.11068   1.00
H2       0.76511    0.13076    0.15093   1.00
C5       0.82794    0.12141    0.15918   1.00
H2       0.85514    0.12429    0.14176   1.00
C5       0.82556    0.07961    0.17547   1.00
H2       0.82931    0.14141    0.18493   1.00
C5       0.63564    0.19521    0.00983   1.00
H2       0.61193    0.19856    -0.01215   1.00
H2       0.63301    0.22019    0.03048   1.00
C5       0.63154    0.15636    0.03200   1.00
C5       0.58969    0.15205    0.04775   1.00
H2       0.92627    0.31439    -0.19286   1.00
C5       0.92244    0.37836    -0.18912   1.00
H2       0.93407    0.33502    -0.14323   1.00
C5       0.59653    0.42329    -0.03337   1.00
H2       0.65145    0.44142    -0.00551   1.00
H2       0.65718    0.41558    -0.05293   1.00
C5       0.86456    0.06892    0.19503   1.00
H2       0.80106    0.07783    0.19789   1.00
H2       0.81942    0.05837    0.15063   1.00
H2       0.58105    0.17976    0.06398   1.00
H2       0.56876    0.14707    0.02239   1.00
C5       0.58779    0.11703    0.07583   1.00
H2       0.89356    0.38963    -0.20116   1.00
H2       0.93357    0.39919    -0.16571   1.00
H2       0.94471    0.37642    -0.21374   1.00
H2       0.57837    0.39992    -0.01820   1.00
H2       0.58745    0.45330    -0.02229   1.00
H2       0.59156    0.42162    -0.06621   1.00
H2       0.87654    0.09544    0.21111   1.00
H2       0.85968    0.04412    0.21664   1.00
H2       0.88632    0.05926    0.17181   1.00
H2       0.59330    0.12745    0.10693   1.00
H2       0.55771    0.10299    0.07402   1.00
H2       0.61097    0.09474    0.06734   1.00
C5       1.11712    0.95145    1.38218   1.00
H2       1.11825    0.98000    1.39745   1.00
H2       1.14157    0.95182    1.36090   1.00
C5       1.12276    0.91828    1.41194   1.00
C5       1.16631    0.91239    1.42123   1.00
H2       1.11060    0.89056    1.40015   1.00
O3       0.98445    0.93091    1.23000   1.00
C4       0.99986    1.00040    1.27100   1.00
C3c      1.03408    0.99340    1.29243   1.00
H1       1.06119    0.98796    1.27725   1.00
C3d      0.96496    1.00797    1.29135   1.00
C3       1.03385    0.99272    1.33354   1.00
O2       1.06919    0.99044    1.35248   1.00
C3       0.96447    1.00658    1.33227   1.00
H1       0.93674    1.01119    1.34657   1.00
C2       0.99872    0.99912    1.35439   1.00
C5       0.94430    0.92175    1.22879   1.00
H2       0.93357    0.91749    1.19838   1.00
H2       0.92650    0.94523    1.24266   1.00
C5       0.93844    0.88383    1.25129   1.00
H2       0.95017    0.88774    1.28137   1.00
H2       0.95605    0.86052    1.23698   1.00
C5       0.89502    0.87238    1.25262   1.00
H2       0.88305    0.86869    1.22268   1.00
H2       0.87762    0.89500    1.26811   1.00
C5       0.89005    0.83343    1.27445   1.00
C5       0.92479    1.05154    1.26105   1.00
C5       1.07816    0.95102    1.36070   1.00
H2       0.94820    1.06145    1.24088   1.00
H2       0.92452    1.07104    1.28712   1.00
H2       1.08073    0.93410    1.33300   1.00
H2       1.05529    0.93653    1.37895   1.00
H2       1.10819    0.92522    1.44030   1.00
H2       0.90174    1.09487    1.19247   1.00
H2       0.88754    1.11880    1.23763   1.00
C2       0.99780    0.99847    1.14605   1.00
C3       1.00764    1.03316    1.16597   1.00
O2       1.00709    1.06852    1.14674   1.00
C3       0.99067    0.96439    1.16826   1.00
H1       0.98407    0.93714    1.15385   1.00
C3a      1.00912    1.03333    1.20713   1.00
H1       1.01450    1.06062    1.22202   1.00
C3b      0.99095    0.96496    1.20922   1.00
C4       1.00014    0.99960    1.22900   1.00
O3       0.92994    1.01209    1.27167   1.00
C5       1.04542    1.08014    1.13720   1.00
H2       1.06384    1.08322    1.16391   1.00
C5       1.04239    1.11953    1.11674   1.00
H2       1.05949    1.05863    1.11726   1.00
H2       1.03857    1.14258    1.13932   1.00
H2       1.01511    1.11924    1.09907   1.00
C5       1.07794    1.12859    1.09082   1.00
H2       1.10514    1.12571    1.10824   1.00
C5       1.07556    1.17039    1.07453   1.00
H2       1.07931    1.10859    1.06507   1.00
C5       0.88564    1.05479    1.24017   1.00
H2       0.86193    1.05144    1.26215   1.00
H2       0.88301    1.02981    1.21952   1.00
C5       0.88154    1.09364    1.21800   1.00
C5       0.83969    1.09795    1.20225   1.00
H2       1.17627    0.93561    1.44286   1.00
C5       1.17244    0.87164    1.43912   1.00
H2       1.18407    0.91498    1.39323   1.00
C5       0.84653    0.82671    1.28337   1.00
H2       0.90145    0.80858    1.25551   1.00
H2       0.90718    0.83442    1.30293   1.00
C5       1.11456    1.18108    1.05497   1.00
H2       1.05106    1.17217    1.05211   1.00
H2       1.06942    1.19163    1.09937   1.00
H2       0.83105    1.07024    1.18602   1.00
H2       0.81876    1.10293    1.22761   1.00
C5       0.83779    1.13297    1.17417   1.00
H2       1.14356    0.86037    1.45116   1.00
H2       1.18357    0.85081    1.41571   1.00
H2       1.19471    0.87358    1.46374   1.00
H2       0.82837    0.85008    1.26820   1.00
H2       0.83745    0.79670    1.27229   1.00
H2       0.84156    0.82838    1.31621   1.00
H2       1.12654    1.15456    1.03889   1.00
H2       1.10968    1.20588    1.03336   1.00
H2       1.13632    1.19074    1.07819   1.00
H2       0.84330    1.12255    1.14307   1.00
H2       0.80771    1.14701    1.17598   1.00
H2       0.86097    1.15526    1.18266   1.00
C5       0.95145    1.38218    1.11712   1.00
H2       0.98000    1.39745    1.11825   1.00
H2       0.95182    1.36090    1.14157   1.00
C5       0.91828    1.41194    1.12276   1.00
C5       0.91239    1.42123    1.16631   1.00
H2       0.89056    1.40015    1.11060   1.00
O3       0.93091    1.23000    0.98445   1.00
C4       1.00040    1.27100    0.99986   1.00
C3c      0.99340    1.29243    1.03408   1.00
H1       0.98796    1.27725    1.06119   1.00
C3d      1.00797    1.29135    0.96496   1.00
C3       0.99272    1.33354    1.03385   1.00
O2       0.99044    1.35248    1.06919   1.00
C3       1.00658    1.33227    0.96447   1.00
H1       1.01119    1.34657    0.93674   1.00
C2       0.99912    1.35439    0.99872   1.00
C5       0.92175    1.22879    0.94430   1.00
H2       0.91749    1.19838    0.93357   1.00
H2       0.94523    1.24266    0.92650   1.00
C5       0.88383    1.25129    0.93844   1.00
H2       0.88774    1.28137    0.95017   1.00
H2       0.86052    1.23698    0.95605   1.00
C5       0.87238    1.25262    0.89502   1.00
H2       0.86869    1.22268    0.88305   1.00
H2       0.89500    1.26811    0.87762   1.00
C5       0.83343    1.27445    0.89005   1.00
C5       1.05154    1.26105    0.92479   1.00
C5       0.95102    1.36070    1.07816   1.00
H2       1.06145    1.24088    0.94820   1.00
H2       1.07104    1.28712    0.92452   1.00
H2       0.93410    1.33300    1.08073   1.00
H2       0.93653    1.37895    1.05529   1.00
H2       0.92522    1.44030    1.10819   1.00
H2       1.09487    1.19247    0.90174   1.00
H2       1.11880    1.23763    0.88754   1.00
C2       0.99847    1.14605    0.99780   1.00
C3       1.03316    1.16597    1.00764   1.00
O2       1.06852    1.14674    1.00709   1.00
C3       0.96439    1.16826    0.99067   1.00
H1       0.93714    1.15385    0.98407   1.00
C3a      1.03333    1.20713    1.00912   1.00
H1       1.06062    1.22202    1.01450   1.00
C3b      0.96496    1.20922    0.99095   1.00
C4       0.99960    1.22900    1.00014   1.00
O3       1.01209    1.27167    0.92994   1.00
C5       1.08014    1.13720    1.04542   1.00
H2       1.08322    1.16391    1.06384   1.00
C5       1.11953    1.11674    1.04239   1.00
H2       1.05863    1.11726    1.05949   1.00
H2       1.14258    1.13932    1.03857   1.00
H2       1.11924    1.09907    1.01511   1.00
C5       1.12859    1.09082    1.07794   1.00
H2       1.12571    1.10824    1.10514   1.00
C5       1.17039    1.07453    1.07556   1.00
H2       1.10859    1.06507    1.07931   1.00
C5       1.05479    1.24017    0.88564   1.00
H2       1.05144    1.26215    0.86193   1.00
H2       1.02981    1.21952    0.88301   1.00
C5       1.09364    1.21800    0.88154   1.00
C5       1.09795    1.20225    0.83969   1.00
H2       0.93561    1.44286    1.17627   1.00
C5       0.87164    1.43912    1.17244   1.00
H2       0.91498    1.39323    1.18407   1.00
C5       0.82671    1.28337    0.84653   1.00
H2       0.80858    1.25551    0.90145   1.00
H2       0.83442    1.30293    0.90718   1.00
C5       1.18108    1.05497    1.11456   1.00
H2       1.17217    1.05211    1.05106   1.00
H2       1.19163    1.09937    1.06942   1.00
H2       1.07024    1.18602    0.83105   1.00
H2       1.10293    1.22761    0.81876   1.00
C5       1.13297    1.17417    0.83779   1.00
H2       0.86037    1.45116    1.14356   1.00
H2       0.85081    1.41571    1.18357   1.00
H2       0.87358    1.46374    1.19471   1.00
H2       0.85008    1.26820    0.82837   1.00
H2       0.79670    1.27229    0.83745   1.00
H2       0.82838    1.31621    0.84156   1.00
H2       1.15456    1.03889    1.12654   1.00
H2       1.20588    1.03336    1.10968   1.00
H2       1.19074    1.07819    1.13632   1.00
H2       1.12255    1.14307    0.84330   1.00
H2       1.14701    1.17598    0.80771   1.00
H2       1.15526    1.18266    0.86097   1.00
C5       0.61782    1.11712    1.04855   1.00
H2       0.60255    1.11825    1.02000   1.00
H2       0.63910    1.14157    1.04818   1.00
C5       0.58806    1.12276    1.08172   1.00
C5       0.57877    1.16631    1.08761   1.00
H2       0.59985    1.11060    1.10944   1.00
O3       0.77000    0.98445    1.06909   1.00
C4       0.72900    0.99986    0.99960   1.00
C3c      0.70757    1.03408    1.00660   1.00
H1       0.72275    1.06119    1.01204   1.00
C3d      0.70865    0.96496    0.99203   1.00
C3       0.66646    1.03385    1.00728   1.00
O2       0.64752    1.06919    1.00956   1.00
C3       0.66773    0.96447    0.99342   1.00
H1       0.65343    0.93674    0.98881   1.00
C2       0.64561    0.99872    1.00088   1.00
C5       0.77121    0.94430    1.07825   1.00
H2       0.80162    0.93357    1.08251   1.00
H2       0.75734    0.92650    1.05477   1.00
C5       0.74871    0.93844    1.11617   1.00
H2       0.71863    0.95017    1.11226   1.00
H2       0.76302    0.95605    1.13948   1.00
C5       0.74738    0.89502    1.12762   1.00
H2       0.77732    0.88305    1.13131   1.00
H2       0.73189    0.87762    1.10500   1.00
C5       0.72555    0.89005    1.16657   1.00
C5       0.73895    0.92479    0.94846   1.00
C5       0.63930    1.07816    1.04898   1.00
H2       0.75912    0.94820    0.93855   1.00
H2       0.71288    0.92452    0.92896   1.00
H2       0.66700    1.08073    1.06590   1.00
H2       0.62105    1.05529    1.06347   1.00
H2       0.55970    1.10819    1.07478   1.00
H2       0.80753    0.90174    0.90513   1.00
H2       0.76237    0.88754    0.88120   1.00
C2       0.85395    0.99780    1.00153   1.00
C3       0.83403    1.00764    0.96684   1.00
O2       0.85326    1.00709    0.93148   1.00
C3       0.83174    0.99067    1.03561   1.00
H1       0.84615    0.98407    1.06286   1.00
C3a      0.79287    1.00912    0.96667   1.00
H1       0.77798    1.01450    0.93938   1.00
C3b      0.79078    0.99095    1.03504   1.00
C4       0.77100    1.00014    1.00040   1.00
O3       0.72833    0.92994    0.98791   1.00
C5       0.86280    1.04542    0.91986   1.00
H2       0.83609    1.06384    0.91678   1.00
C5       0.88326    1.04239    0.88047   1.00
H2       0.88274    1.05949    0.94137   1.00
H2       0.86068    1.03857    0.85742   1.00
H2       0.90093    1.01511    0.88076   1.00
C5       0.90918    1.07794    0.87141   1.00
H2       0.89176    1.10514    0.87429   1.00
C5       0.92547    1.07556    0.82961   1.00
H2       0.93493    1.07931    0.89141   1.00
C5       0.75983    0.88564    0.94521   1.00
H2       0.73785    0.86193    0.94856   1.00
H2       0.78048    0.88301    0.97019   1.00
C5       0.78200    0.88154    0.90636   1.00
C5       0.79775    0.83969    0.90205   1.00
H2       0.55714    1.17627    1.06439   1.00
C5       0.56088    1.17244    1.12836   1.00
H2       0.60677    1.18407    1.08502   1.00
C5       0.71663    0.84653    1.17329   1.00
H2       0.74449    0.90145    1.19142   1.00
H2       0.69707    0.90718    1.16558   1.00
C5       0.94503    1.11456    0.81892   1.00
H2       0.94789    1.05106    0.82783   1.00
H2       0.90063    1.06942    0.80837   1.00
H2       0.81398    0.83105    0.92976   1.00
H2       0.77239    0.81876    0.89707   1.00
C5       0.82583    0.83779    0.86703   1.00
H2       0.54884    1.14356    1.13963   1.00
H2       0.58429    1.18357    1.14919   1.00
H2       0.53626    1.19471    1.12642   1.00
H2       0.73180    0.82837    1.14992   1.00
H2       0.72771    0.83745    1.20330   1.00
H2       0.68379    0.84156    1.17162   1.00
H2       0.96111    1.12654    0.84544   1.00
H2       0.96664    1.10968    0.79412   1.00
H2       0.92181    1.13632    0.80926   1.00
H2       0.85693    0.84330    0.87745   1.00
H2       0.82402    0.80771    0.85299   1.00
H2       0.81734    0.86097    0.84474   1.00
C5       1.38218    1.11712    0.95145   1.00
H2       1.39745    1.11825    0.98000   1.00
H2       1.36090    1.14157    0.95182   1.00
C5       1.41194    1.12276    0.91828   1.00
C5       1.42123    1.16631    0.91239   1.00
H2       1.40015    1.11060    0.89056   1.00
O3       1.23000    0.98445    0.93091   1.00
C4       1.27100    0.99986    1.00040   1.00
C3c      1.29243    1.03408    0.99340   1.00
H1       1.27725    1.06119    0.98796   1.00
C3d      1.29135    0.96496    1.00797   1.00
C3       1.33354    1.03385    0.99272   1.00
O2       1.35248    1.06919    0.99044   1.00
C3       1.33227    0.96447    1.00658   1.00
H1       1.34657    0.93674    1.01119   1.00
C2       1.35439    0.99872    0.99912   1.00
C5       1.22879    0.94430    0.92175   1.00
H2       1.19838    0.93357    0.91749   1.00
H2       1.24266    0.92650    0.94523   1.00
C5       1.25129    0.93844    0.88383   1.00
H2       1.28137    0.95017    0.88774   1.00
H2       1.23698    0.95605    0.86052   1.00
C5       1.25262    0.89502    0.87238   1.00
H2       1.22268    0.88305    0.86869   1.00
H2       1.26811    0.87762    0.89500   1.00
C5       1.27445    0.89005    0.83343   1.00
C5       1.26105    0.92479    1.05154   1.00
C5       1.36070    1.07816    0.95102   1.00
H2       1.24088    0.94820    1.06145   1.00
H2       1.28712    0.92452    1.07104   1.00
H2       1.33300    1.08073    0.93410   1.00
H2       1.37895    1.05529    0.93653   1.00
H2       1.44030    1.10819    0.92522   1.00
H2       1.19247    0.90174    1.09487   1.00
H2       1.23763    0.88754    1.11880   1.00
C2       1.14605    0.99780    0.99847   1.00
C3       1.16597    1.00764    1.03316   1.00
O2       1.14674    1.00709    1.06852   1.00
C3       1.16826    0.99067    0.96439   1.00
H1       1.15385    0.98407    0.93714   1.00
C3a      1.20713    1.00912    1.03333   1.00
H1       1.22202    1.01450    1.06062   1.00
C3b      1.20922    0.99095    0.96496   1.00
C4       1.22900    1.00014    0.99960   1.00
O3       1.27167    0.92994    1.01209   1.00
C5       1.13720    1.04542    1.08014   1.00
H2       1.16391    1.06384    1.08322   1.00
C5       1.11674    1.04239    1.11953   1.00
H2       1.11726    1.05949    1.05863   1.00
H2       1.13932    1.03857    1.14258   1.00
H2       1.09907    1.01511    1.11924   1.00
C5       1.09082    1.07794    1.12859   1.00
H2       1.10824    1.10514    1.12571   1.00
C5       1.07453    1.07556    1.17039   1.00
H2       1.06507    1.07931    1.10859   1.00
C5       1.24017    0.88564    1.05479   1.00
H2       1.26215    0.86193    1.05144   1.00
H2       1.21952    0.88301    1.02981   1.00
C5       1.21800    0.88154    1.09364   1.00
C5       1.20225    0.83969    1.09795   1.00
H2       1.44286    1.17627    0.93561   1.00
C5       1.43912    1.17244    0.87164   1.00
H2       1.39323    1.18407    0.91498   1.00
C5       1.28337    0.84653    0.82671   1.00
H2       1.25551    0.90145    0.80858   1.00
H2       1.30293    0.90718    0.83442   1.00
C5       1.05497    1.11456    1.18108   1.00
H2       1.05211    1.05106    1.17217   1.00
H2       1.09937    1.06942    1.19163   1.00
H2       1.18602    0.83105    1.07024   1.00
H2       1.22761    0.81876    1.10293   1.00
C5       1.17417    0.83779    1.13297   1.00
H2       1.45116    1.14356    0.86037   1.00
H2       1.41571    1.18357    0.85081   1.00
H2       1.46374    1.19471    0.87358   1.00
H2       1.26820    0.82837    0.85008   1.00
H2       1.27229    0.83745    0.79670   1.00
H2       1.31621    0.84156    0.82838   1.00
H2       1.03889    1.12654    1.15456   1.00
H2       1.03336    1.10968    1.20588   1.00
H2       1.07819    1.13632    1.19074   1.00
H2       1.14307    0.84330    1.12255   1.00
H2       1.17598    0.80771    1.14701   1.00
H2       1.18266    0.86097    1.15526   1.00
C5       1.04855    0.61782    1.11712   1.00
H2       1.02000    0.60255    1.11825   1.00
H2       1.04818    0.63910    1.14157   1.00
C5       1.08172    0.58806    1.12276   1.00
C5       1.08761    0.57877    1.16631   1.00
H2       1.10944    0.59985    1.11060   1.00
O3       1.06909    0.77000    0.98445   1.00
C4       0.99960    0.72900    0.99986   1.00
C3c      1.00660    0.70757    1.03408   1.00
H1       1.01204    0.72275    1.06119   1.00
C3d      0.99203    0.70865    0.96496   1.00
C3       1.00728    0.66646    1.03385   1.00
O2       1.00956    0.64752    1.06919   1.00
C3       0.99342    0.66773    0.96447   1.00
H1       0.98881    0.65343    0.93674   1.00
C2       1.00088    0.64561    0.99872   1.00
C5       1.07825    0.77121    0.94430   1.00
H2       1.08251    0.80162    0.93357   1.00
H2       1.05477    0.75734    0.92650   1.00
C5       1.11617    0.74871    0.93844   1.00
H2       1.11226    0.71863    0.95017   1.00
H2       1.13948    0.76302    0.95605   1.00
C5       1.12762    0.74738    0.89502   1.00
H2       1.13131    0.77732    0.88305   1.00
H2       1.10500    0.73189    0.87762   1.00
C5       1.16657    0.72555    0.89005   1.00
C5       0.94846    0.73895    0.92479   1.00
C5       1.04898    0.63930    1.07816   1.00
H2       0.93855    0.75912    0.94820   1.00
H2       0.92896    0.71288    0.92452   1.00
H2       1.06590    0.66700    1.08073   1.00
H2       1.06347    0.62105    1.05529   1.00
H2       1.07478    0.55970    1.10819   1.00
H2       0.90513    0.80753    0.90174   1.00
H2       0.88120    0.76237    0.88754   1.00
C2       1.00153    0.85395    0.99780   1.00
C3       0.96684    0.83403    1.00764   1.00
O2       0.93148    0.85326    1.00709   1.00
C3       1.03561    0.83174    0.99067   1.00
H1       1.06286    0.84615    0.98407   1.00
C3a      0.96667    0.79287    1.00912   1.00
H1       0.93938    0.77798    1.01450   1.00
C3b      1.03504    0.79078    0.99095   1.00
C4       1.00040    0.77100    1.00014   1.00
O3       0.98791    0.72833    0.92994   1.00
C5       0.91986    0.86280    1.04542   1.00
H2       0.91678    0.83609    1.06384   1.00
C5       0.88047    0.88326    1.04239   1.00
H2       0.94137    0.88274    1.05949   1.00
H2       0.85742    0.86068    1.03857   1.00
H2       0.88076    0.90093    1.01511   1.00
C5       0.87141    0.90918    1.07794   1.00
H2       0.87429    0.89176    1.10514   1.00
C5       0.82961    0.92547    1.07556   1.00
H2       0.89141    0.93493    1.07931   1.00
C5       0.94521    0.75983    0.88564   1.00
H2       0.94856    0.73785    0.86193   1.00
H2       0.97019    0.78048    0.88301   1.00
C5       0.90636    0.78200    0.88154   1.00
C5       0.90205    0.79775    0.83969   1.00
H2       1.06439    0.55714    1.17627   1.00
C5       1.12836    0.56088    1.17244   1.00
H2       1.08502    0.60677    1.18407   1.00
C5       1.17329    0.71663    0.84653   1.00
H2       1.19142    0.74449    0.90145   1.00
H2       1.16558    0.69707    0.90718   1.00
C5       0.81892    0.94503    1.11456   1.00
H2       0.82783    0.94789    1.05106   1.00
H2       0.80837    0.90063    1.06942   1.00
H2       0.92976    0.81398    0.83105   1.00
H2       0.89707    0.77239    0.81876   1.00
C5       0.86703    0.82583    0.83779   1.00
H2       1.13963    0.54884    1.14356   1.00
H2       1.14919    0.58429    1.18357   1.00
H2       1.12642    0.53626    1.19471   1.00
H2       1.14992    0.73180    0.82837   1.00
H2       1.20330    0.72771    0.83745   1.00
H2       1.17162    0.68379    0.84156   1.00
H2       0.84544    0.96111    1.12654   1.00
H2       0.79412    0.96664    1.10968   1.00
H2       0.80926    0.92181    1.13632   1.00
H2       0.87745    0.85693    0.84330   1.00
H2       0.85299    0.82402    0.80771   1.00
H2       0.84474    0.81734    0.86097   1.00
C5       1.11712    1.04855    0.61782   1.00
H2       1.11825    1.02000    0.60255   1.00
H2       1.14157    1.04818    0.63910   1.00
C5       1.12276    1.08172    0.58806   1.00
C5       1.16631    1.08761    0.57877   1.00
H2       1.11060    1.10944    0.59985   1.00
O3       0.98445    1.06909    0.77000   1.00
C4       0.99986    0.99960    0.72900   1.00
C3c      1.03408    1.00660    0.70757   1.00
H1       1.06119    1.01204    0.72275   1.00
C3d      0.96496    0.99203    0.70865   1.00
C3       1.03385    1.00728    0.66646   1.00
O2       1.06919    1.00956    0.64752   1.00
C3       0.96447    0.99342    0.66773   1.00
H1       0.93674    0.98881    0.65343   1.00
C2       0.99872    1.00088    0.64561   1.00
C5       0.94430    1.07825    0.77121   1.00
H2       0.93357    1.08251    0.80162   1.00
H2       0.92650    1.05477    0.75734   1.00
C5       0.93844    1.11617    0.74871   1.00
H2       0.95017    1.11226    0.71863   1.00
H2       0.95605    1.13948    0.76302   1.00
C5       0.89502    1.12762    0.74738   1.00
H2       0.88305    1.13131    0.77732   1.00
H2       0.87762    1.10500    0.73189   1.00
C5       0.89005    1.16657    0.72555   1.00
C5       0.92479    0.94846    0.73895   1.00
C5       1.07816    1.04898    0.63930   1.00
H2       0.94820    0.93855    0.75912   1.00
H2       0.92452    0.92896    0.71288   1.00
H2       1.08073    1.06590    0.66700   1.00
H2       1.05529    1.06347    0.62105   1.00
H2       1.10819    1.07478    0.55970   1.00
H2       0.90174    0.90513    0.80753   1.00
H2       0.88754    0.88120    0.76237   1.00
C2       0.99780    1.00153    0.85395   1.00
C3       1.00764    0.96684    0.83403   1.00
O2       1.00709    0.93148    0.85326   1.00
C3       0.99067    1.03561    0.83174   1.00
H1       0.98407    1.06286    0.84615   1.00
C3a      1.00912    0.96667    0.79287   1.00
H1       1.01450    0.93938    0.77798   1.00
C3b      0.99095    1.03504    0.79078   1.00
C4       1.00014    1.00040    0.77100   1.00
O3       0.92994    0.98791    0.72833   1.00
C5       1.04542    0.91986    0.86280   1.00
H2       1.06384    0.91678    0.83609   1.00
C5       1.04239    0.88047    0.88326   1.00
H2       1.05949    0.94137    0.88274   1.00
H2       1.03857    0.85742    0.86068   1.00
H2       1.01511    0.88076    0.90093   1.00
C5       1.07794    0.87141    0.90918   1.00
H2       1.10514    0.87429    0.89176   1.00
C5       1.07556    0.82961    0.92547   1.00
H2       1.07931    0.89141    0.93493   1.00
C5       0.88564    0.94521    0.75983   1.00
H2       0.86193    0.94856    0.73785   1.00
H2       0.88301    0.97019    0.78048   1.00
C5       0.88154    0.90636    0.78200   1.00
C5       0.83969    0.90205    0.79775   1.00
H2       1.17627    1.06439    0.55714   1.00
C5       1.17244    1.12836    0.56088   1.00
H2       1.18407    1.08502    0.60677   1.00
C5       0.84653    1.17329    0.71663   1.00
H2       0.90145    1.19142    0.74449   1.00
H2       0.90718    1.16558    0.69707   1.00
C5       1.11456    0.81892    0.94503   1.00
H2       1.05106    0.82783    0.94789   1.00
H2       1.06942    0.80837    0.90063   1.00
H2       0.83105    0.92976    0.81398   1.00
H2       0.81876    0.89707    0.77239   1.00
C5       0.83779    0.86703    0.82583   1.00
H2       1.14356    1.13963    0.54884   1.00
H2       1.18357    1.14919    0.58429   1.00
H2       1.19471    1.12642    0.53626   1.00
H2       0.82837    1.14992    0.73180   1.00
H2       0.83745    1.20330    0.72771   1.00
H2       0.84156    1.17162    0.68379   1.00
H2       1.12654    0.84544    0.96111   1.00
H2       1.10968    0.79412    0.96664   1.00
H2       1.13632    0.80926    0.92181   1.00
H2       0.84330    0.87745    0.85693   1.00
H2       0.80771    0.85299    0.82402   1.00
H2       0.86097    0.84474    0.81734   1.00
C5       0.61712    0.45145    1.38218   1.00
H2       0.61825    0.48000    1.39745   1.00
H2       0.64157    0.45182    1.36090   1.00
C5       0.62276    0.41828    1.41194   1.00
C5       0.66631    0.41239    1.42123   1.00
H2       0.61060    0.39056    1.40015   1.00
O3       0.48445    0.43091    1.23000   1.00
C4       0.49986    0.50040    1.27100   1.00
C3c      0.53408    0.49340    1.29243   1.00
H1       0.56119    0.48796    1.27725   1.00
C3d      0.46496    0.50797    1.29135   1.00
C3       0.53385    0.49272    1.33354   1.00
O2       0.56919    0.49044    1.35248   1.00
C3       0.46447    0.50658    1.33227   1.00
H1       0.43674    0.51119    1.34657   1.00
C2       0.49872    0.49912    1.35439   1.00
C5       0.44430    0.42175    1.22879   1.00
H2       0.43357    0.41749    1.19838   1.00
H2       0.42650    0.44523    1.24266   1.00
C5       0.43844    0.38383    1.25129   1.00
H2       0.45017    0.38774    1.28137   1.00
H2       0.45605    0.36052    1.23698   1.00
C5       0.39502    0.37238    1.25262   1.00
H2       0.38305    0.36869    1.22268   1.00
H2       0.37762    0.39500    1.26811   1.00
C5       0.39005    0.33343    1.27445   1.00
C5       0.42479    0.55154    1.26105   1.00
C5       0.57816    0.45102    1.36070   1.00
H2       0.44820    0.56145    1.24088   1.00
H2       0.42452    0.57104    1.28712   1.00
H2       0.58073    0.43410    1.33300   1.00
H2       0.55529    0.43653    1.37895   1.00
H2       0.60819    0.42522    1.44030   1.00
H2       0.40174    0.59487    1.19247   1.00
H2       0.38754    0.61880    1.23763   1.00
C2       0.49780    0.49847    1.14605   1.00
C3       0.50764    0.53316    1.16597   1.00
O2       0.50709    0.56852    1.14674   1.00
C3       0.49067    0.46439    1.16826   1.00
H1       0.48407    0.43714    1.15385   1.00
C3a      0.50912    0.53333    1.20713   1.00
H1       0.51450    0.56062    1.22202   1.00
C3b      0.49095    0.46496    1.20922   1.00
C4       0.50014    0.49960    1.22900   1.00
O3       0.42994    0.51209    1.27167   1.00
C5       0.54542    0.58014    1.13720   1.00
H2       0.56384    0.58322    1.16391   1.00
C5       0.54239    0.61953    1.11674   1.00
H2       0.55949    0.55863    1.11726   1.00
H2       0.53857    0.64258    1.13932   1.00
H2       0.51511    0.61924    1.09907   1.00
C5       0.57794    0.62859    1.09082   1.00
H2       0.60514    0.62571    1.10824   1.00
C5       0.57556    0.67039    1.07453   1.00
H2       0.57931    0.60859    1.06507   1.00
C5       0.38564    0.55479    1.24017   1.00
H2       0.36193    0.55144    1.26215   1.00
H2       0.38301    0.52981    1.21952   1.00
C5       0.38154    0.59364    1.21800   1.00
C5       0.33969    0.59795    1.20225   1.00
H2       0.67627    0.43561    1.44286   1.00
C5       0.67244    0.37164    1.43912   1.00
H2       0.68407    0.41498    1.39323   1.00
C5       0.34653    0.32671    1.28337   1.00
H2       0.40145    0.30858    1.25551   1.00
H2       0.40718    0.33442    1.30293   1.00
C5       0.61456    0.68108    1.05497   1.00
H2       0.55106    0.67217    1.05211   1.00
H2       0.56942    0.69163    1.09937   1.00
H2       0.33105    0.57024    1.18602   1.00
H2       0.31876    0.60293    1.22761   1.00
C5       0.33779    0.63297    1.17417   1.00
H2       0.64356    0.36037    1.45116   1.00
H2       0.68357    0.35081    1.41571   1.00
H2       0.69471    0.37358    1.46374   1.00
H2       0.32837    0.35008    1.26820   1.00
H2       0.33745    0.29670    1.27229   1.00
H2       0.34156    0.32838    1.31621   1.00
H2       0.62654    0.65456    1.03889   1.00
H2       0.60968    0.70588    1.03336   1.00
H2       0.63632    0.69074    1.07819   1.00
H2       0.34330    0.62255    1.14307   1.00
H2       0.30771    0.64701    1.17598   1.00
H2       0.36097    0.65526    1.18266   1.00
C5       0.45145    0.88218    1.11712   1.00
H2       0.48000    0.89745    1.11825   1.00
H2       0.45182    0.86090    1.14157   1.00
C5       0.41828    0.91194    1.12276   1.00
C5       0.41239    0.92123    1.16631   1.00
H2       0.39056    0.90015    1.11060   1.00
O3       0.43091    0.73000    0.98445   1.00
C4       0.50040    0.77100    0.99986   1.00
C3c      0.49340    0.79243    1.03408   1.00
H1       0.48796    0.77725    1.06119   1.00
C3d      0.50797    0.79135    0.96496   1.00
C3       0.49272    0.83354    1.03385   1.00
O2       0.49044    0.85248    1.06919   1.00
C3       0.50658    0.83227    0.96447   1.00
H1       0.51119    0.84657    0.93674   1.00
C2       0.49912    0.85439    0.99872   1.00
C5       0.42175    0.72879    0.94430   1.00
H2       0.41749    0.69838    0.93357   1.00
H2       0.44523    0.74266    0.92650   1.00
C5       0.38383    0.75129    0.93844   1.00
H2       0.38774    0.78137    0.95017   1.00
H2       0.36052    0.73698    0.95605   1.00
C5       0.37238    0.75262    0.89502   1.00
H2       0.36869    0.72268    0.88305   1.00
H2       0.39500    0.76811    0.87762   1.00
C5       0.33343    0.77445    0.89005   1.00
C5       0.55154    0.76105    0.92479   1.00
C5       0.45102    0.86070    1.07816   1.00
H2       0.56145    0.74088    0.94820   1.00
H2       0.57104    0.78712    0.92452   1.00
H2       0.43410    0.83300    1.08073   1.00
H2       0.43653    0.87895    1.05529   1.00
H2       0.42522    0.94030    1.10819   1.00
H2       0.59487    0.69247    0.90174   1.00
H2       0.61880    0.73763    0.88754   1.00
C2       0.49847    0.64605    0.99780   1.00
C3       0.53316    0.66597    1.00764   1.00
O2       0.56852    0.64674    1.00709   1.00
C3       0.46439    0.66826    0.99067   1.00
H1       0.43714    0.65385    0.98407   1.00
C3a      0.53333    0.70713    1.00912   1.00
H1       0.56062    0.72202    1.01450   1.00
C3b      0.46496    0.70922    0.99095   1.00
C4       0.49960    0.72900    1.00014   1.00
O3       0.51209    0.77167    0.92994   1.00
C5       0.58014    0.63720    1.04542   1.00
H2       0.58322    0.66391    1.06384   1.00
C5       0.61953    0.61674    1.04239   1.00
H2       0.55863    0.61726    1.05949   1.00
H2       0.64258    0.63932    1.03857   1.00
H2       0.61924    0.59907    1.01511   1.00
C5       0.62859    0.59082    1.07794   1.00
H2       0.62571    0.60824    1.10514   1.00
C5       0.67039    0.57453    1.07556   1.00
H2       0.60859    0.56507    1.07931   1.00
C5       0.55479    0.74017    0.88564   1.00
H2       0.55144    0.76215    0.86193   1.00
H2       0.52981    0.71952    0.88301   1.00
C5       0.59364    0.71800    0.88154   1.00
C5       0.59795    0.70225    0.83969   1.00
H2       0.43561    0.94286    1.17627   1.00
C5       0.37164    0.93912    1.17244   1.00
H2       0.41498    0.89323    1.18407   1.00
C5       0.32671    0.78337    0.84653   1.00
H2       0.30858    0.75551    0.90145   1.00
H2       0.33442    0.80293    0.90718   1.00
C5       0.68108    0.55497    1.11456   1.00
H2       0.67217    0.55211    1.05106   1.00
H2       0.69163    0.59937    1.06942   1.00
H2       0.57024    0.68602    0.83105   1.00
H2       0.60293    0.72761    0.81876   1.00
C5       0.63297    0.67417    0.83779   1.00
H2       0.36037    0.95116    1.14356   1.00
H2       0.35081    0.91571    1.18357   1.00
H2       0.37358    0.96374    1.19471   1.00
H2       0.35008    0.76820    0.82837   1.00
H2       0.29670    0.77229    0.83745   1.00
H2       0.32838    0.81621    0.84156   1.00
H2       0.65456    0.53889    1.12654   1.00
H2       0.70588    0.53336    1.10968   1.00
H2       0.69074    0.57819    1.13632   1.00
H2       0.62255    0.64307    0.84330   1.00
H2       0.64701    0.67598    0.80771   1.00
H2       0.65526    0.68266    0.86097   1.00
C5       0.11782    0.61712    1.04855   1.00
H2       0.10255    0.61825    1.02000   1.00
H2       0.13910    0.64157    1.04818   1.00
C5       0.08806    0.62276    1.08172   1.00
C5       0.07877    0.66631    1.08761   1.00
H2       0.09985    0.61060    1.10944   1.00
O3       0.27000    0.48445    1.06909   1.00
C4       0.22900    0.49986    0.99960   1.00
C3c      0.20757    0.53408    1.00660   1.00
H1       0.22275    0.56119    1.01204   1.00
C3d      0.20865    0.46496    0.99203   1.00
C3       0.16646    0.53385    1.00728   1.00
O2       0.14752    0.56919    1.00956   1.00
C3       0.16773    0.46447    0.99342   1.00
H1       0.15343    0.43674    0.98881   1.00
C2       0.14561    0.49872    1.00088   1.00
C5       0.27121    0.44430    1.07825   1.00
H2       0.30162    0.43357    1.08251   1.00
H2       0.25734    0.42650    1.05477   1.00
C5       0.24871    0.43844    1.11617   1.00
H2       0.21863    0.45017    1.11226   1.00
H2       0.26302    0.45605    1.13948   1.00
C5       0.24738    0.39502    1.12762   1.00
H2       0.27732    0.38305    1.13131   1.00
H2       0.23189    0.37762    1.10500   1.00
C5       0.22555    0.39005    1.16657   1.00
C5       0.23895    0.42479    0.94846   1.00
C5       0.13930    0.57816    1.04898   1.00
H2       0.25912    0.44820    0.93855   1.00
H2       0.21288    0.42452    0.92896   1.00
H2       0.16700    0.58073    1.06590   1.00
H2       0.12105    0.55529    1.06347   1.00
H2       0.05970    0.60819    1.07478   1.00
H2       0.30753    0.40174    0.90513   1.00
H2       0.26237    0.38754    0.88120   1.00
C2       0.35395    0.49780    1.00153   1.00
C3       0.33403    0.50764    0.96684   1.00
O2       0.35326    0.50709    0.93148   1.00
C3       0.33174    0.49067    1.03561   1.00
H1       0.34615    0.48407    1.06286   1.00
C3a      0.29287    0.50912    0.96667   1.00
H1       0.27798    0.51450    0.93938   1.00
C3b      0.29078    0.49095    1.03504   1.00
C4       0.27100    0.50014    1.00040   1.00
O3       0.22833    0.42994    0.98791   1.00
C5       0.36280    0.54542    0.91986   1.00
H2       0.33609    0.56384    0.91678   1.00
C5       0.38326    0.54239    0.88047   1.00
H2       0.38274    0.55949    0.94137   1.00
H2       0.36068    0.53857    0.85742   1.00
H2       0.40093    0.51511    0.88076   1.00
C5       0.40918    0.57794    0.87141   1.00
H2       0.39176    0.60514    0.87429   1.00
C5       0.42547    0.57556    0.82961   1.00
H2       0.43493    0.57931    0.89141   1.00
C5       0.25983    0.38564    0.94521   1.00
H2       0.23785    0.36193    0.94856   1.00
H2       0.28048    0.38301    0.97019   1.00
C5       0.28200    0.38154    0.90636   1.00
C5       0.29775    0.33969    0.90205   1.00
H2       0.05714    0.67627    1.06439   1.00
C5       0.06088    0.67244    1.12836   1.00
H2       0.10677    0.68407    1.08502   1.00
C5       0.21663    0.34653    1.17329   1.00
H2       0.24449    0.40145    1.19142   1.00
H2       0.19707    0.40718    1.16558   1.00
C5       0.44503    0.61456    0.81892   1.00
H2       0.44789    0.55106    0.82783   1.00
H2       0.40063    0.56942    0.80837   1.00
H2       0.31398    0.33105    0.92976   1.00
H2       0.27239    0.31876    0.89707   1.00
C5       0.32583    0.33779    0.86703   1.00
H2       0.04884    0.64356    1.13963   1.00
H2       0.08429    0.68357    1.14919   1.00
H2       0.03626    0.69471    1.12642   1.00
H2       0.23180    0.32837    1.14992   1.00
H2       0.22771    0.33745    1.20330   1.00
H2       0.18379    0.34156    1.17162   1.00
H2       0.46111    0.62654    0.84544   1.00
H2       0.46664    0.60968    0.79412   1.00
H2       0.42181    0.63632    0.80926   1.00
H2       0.35693    0.34330    0.87745   1.00
H2       0.32402    0.30771    0.85299   1.00
H2       0.31734    0.36097    0.84474   1.00
C5       0.88218    0.61712    0.95145   1.00
H2       0.89745    0.61825    0.98000   1.00
H2       0.86090    0.64157    0.95182   1.00
C5       0.91194    0.62276    0.91828   1.00
C5       0.92123    0.66631    0.91239   1.00
H2       0.90015    0.61060    0.89056   1.00
O3       0.73000    0.48445    0.93091   1.00
C4       0.77100    0.49986    1.00040   1.00
C3c      0.79243    0.53408    0.99340   1.00
H1       0.77725    0.56119    0.98796   1.00
C3d      0.79135    0.46496    1.00797   1.00
C3       0.83354    0.53385    0.99272   1.00
O2       0.85248    0.56919    0.99044   1.00
C3       0.83227    0.46447    1.00658   1.00
H1       0.84657    0.43674    1.01119   1.00
C2       0.85439    0.49872    0.99912   1.00
C5       0.72879    0.44430    0.92175   1.00
H2       0.69838    0.43357    0.91749   1.00
H2       0.74266    0.42650    0.94523   1.00
C5       0.75129    0.43844    0.88383   1.00
H2       0.78137    0.45017    0.88774   1.00
H2       0.73698    0.45605    0.86052   1.00
C5       0.75262    0.39502    0.87238   1.00
H2       0.72268    0.38305    0.86869   1.00
H2       0.76811    0.37762    0.89500   1.00
C5       0.77445    0.39005    0.83343   1.00
C5       0.76105    0.42479    1.05154   1.00
C5       0.86070    0.57816    0.95102   1.00
H2       0.74088    0.44820    1.06145   1.00
H2       0.78712    0.42452    1.07104   1.00
H2       0.83300    0.58073    0.93410   1.00
H2       0.87895    0.55529    0.93653   1.00
H2       0.94030    0.60819    0.92522   1.00
H2       0.69247    0.40174    1.09487   1.00
H2       0.73763    0.38754    1.11880   1.00
C2       0.64605    0.49780    0.99847   1.00
C3       0.66597    0.50764    1.03316   1.00
O2       0.64674    0.50709    1.06852   1.00
C3       0.66826    0.49067    0.96439   1.00
H1       0.65385    0.48407    0.93714   1.00
C3a      0.70713    0.50912    1.03333   1.00
H1       0.72202    0.51450    1.06062   1.00
C3b      0.70922    0.49095    0.96496   1.00
C4       0.72900    0.50014    0.99960   1.00
O3       0.77167    0.42994    1.01209   1.00
C5       0.63720    0.54542    1.08014   1.00
H2       0.66391    0.56384    1.08322   1.00
C5       0.61674    0.54239    1.11953   1.00
H2       0.61726    0.55949    1.05863   1.00
H2       0.63932    0.53857    1.14258   1.00
H2       0.59907    0.51511    1.11924   1.00
C5       0.59082    0.57794    1.12859   1.00
H2       0.60824    0.60514    1.12571   1.00
C5       0.57453    0.57556    1.17039   1.00
H2       0.56507    0.57931    1.10859   1.00
C5       0.74017    0.38564    1.05479   1.00
H2       0.76215    0.36193    1.05144   1.00
H2       0.71952    0.38301    1.02981   1.00
C5       0.71800    0.38154    1.09364   1.00
C5       0.70225    0.33969    1.09795   1.00
H2       0.94286    0.67627    0.93561   1.00
C5       0.93912    0.67244    0.87164   1.00
H2       0.89323    0.68407    0.91498   1.00
C5       0.78337    0.34653    0.82671   1.00
H2       0.75551    0.40145    0.80858   1.00
H2       0.80293    0.40718    0.83442   1.00
C5       0.55497    0.61456    1.18108   1.00
H2       0.55211    0.55106    1.17217   1.00
H2       0.59937    0.56942    1.19163   1.00
H2       0.68602    0.33105    1.07024   1.00
H2       0.72761    0.31876    1.10293   1.00
C5       0.67417    0.33779    1.13297   1.00
H2       0.95116    0.64356    0.86037   1.00
H2       0.91571    0.68357    0.85081   1.00
H2       0.96374    0.69471    0.87358   1.00
H2       0.76820    0.32837    0.85008   1.00
H2       0.77229    0.33745    0.79670   1.00
H2       0.81621    0.34156    0.82838   1.00
H2       0.53889    0.62654    1.15456   1.00
H2       0.53336    0.60968    1.20588   1.00
H2       0.57819    0.63632    1.19074   1.00
H2       0.64307    0.34330    1.12255   1.00
H2       0.67598    0.30771    1.14701   1.00
H2       0.68266    0.36097    1.15526   1.00
C5       0.54855    0.11782    1.11712   1.00
H2       0.52000    0.10255    1.11825   1.00
H2       0.54818    0.13910    1.14157   1.00
C5       0.58172    0.08806    1.12276   1.00
C5       0.58761    0.07877    1.16631   1.00
H2       0.60944    0.09985    1.11060   1.00
O3       0.56909    0.27000    0.98445   1.00
C4       0.49960    0.22900    0.99986   1.00
C3c      0.50660    0.20757    1.03408   1.00
H1       0.51204    0.22275    1.06119   1.00
C3d      0.49203    0.20865    0.96496   1.00
C3       0.50728    0.16646    1.03385   1.00
O2       0.50956    0.14752    1.06919   1.00
C3       0.49342    0.16773    0.96447   1.00
H1       0.48881    0.15343    0.93674   1.00
C2       0.50088    0.14561    0.99872   1.00
C5       0.57825    0.27121    0.94430   1.00
H2       0.58251    0.30162    0.93357   1.00
H2       0.55477    0.25734    0.92650   1.00
C5       0.61617    0.24871    0.93844   1.00
H2       0.61226    0.21863    0.95017   1.00
H2       0.63948    0.26302    0.95605   1.00
C5       0.62762    0.24738    0.89502   1.00
H2       0.63131    0.27732    0.88305   1.00
H2       0.60500    0.23189    0.87762   1.00
C5       0.66657    0.22555    0.89005   1.00
C5       0.44846    0.23895    0.92479   1.00
C5       0.54898    0.13930    1.07816   1.00
H2       0.43855    0.25912    0.94820   1.00
H2       0.42896    0.21288    0.92452   1.00
H2       0.56590    0.16700    1.08073   1.00
H2       0.56347    0.12105    1.05529   1.00
H2       0.57478    0.05970    1.10819   1.00
H2       0.40513    0.30753    0.90174   1.00
H2       0.38120    0.26237    0.88754   1.00
C2       0.50153    0.35395    0.99780   1.00
C3       0.46684    0.33403    1.00764   1.00
O2       0.43148    0.35326    1.00709   1.00
C3       0.53561    0.33174    0.99067   1.00
H1       0.56286    0.34615    0.98407   1.00
C3a      0.46667    0.29287    1.00912   1.00
H1       0.43938    0.27798    1.01450   1.00
C3b      0.53504    0.29078    0.99095   1.00
C4       0.50040    0.27100    1.00014   1.00
O3       0.48791    0.22833    0.92994   1.00
C5       0.41986    0.36280    1.04542   1.00
H2       0.41678    0.33609    1.06384   1.00
C5       0.38047    0.38326    1.04239   1.00
H2       0.44137    0.38274    1.05949   1.00
H2       0.35742    0.36068    1.03857   1.00
H2       0.38076    0.40093    1.01511   1.00
C5       0.37141    0.40918    1.07794   1.00
H2       0.37429    0.39176    1.10514   1.00
C5       0.32961    0.42547    1.07556   1.00
H2       0.39141    0.43493    1.07931   1.00
C5       0.44521    0.25983    0.88564   1.00
H2       0.44856    0.23785    0.86193   1.00
H2       0.47019    0.28048    0.88301   1.00
C5       0.40636    0.28200    0.88154   1.00
C5       0.40205    0.29775    0.83969   1.00
H2       0.56439    0.05714    1.17627   1.00
C5       0.62836    0.06088    1.17244   1.00
H2       0.58502    0.10677    1.18407   1.00
C5       0.67329    0.21663    0.84653   1.00
H2       0.69142    0.24449    0.90145   1.00
H2       0.66558    0.19707    0.90718   1.00
C5       0.31892    0.44503    1.11456   1.00
H2       0.32783    0.44789    1.05106   1.00
H2       0.30837    0.40063    1.06942   1.00
H2       0.42976    0.31398    0.83105   1.00
H2       0.39707    0.27239    0.81876   1.00
C5       0.36703    0.32583    0.83779   1.00
H2       0.63963    0.04884    1.14356   1.00
H2       0.64919    0.08429    1.18357   1.00
H2       0.62642    0.03626    1.19471   1.00
H2       0.64992    0.23180    0.82837   1.00
H2       0.70330    0.22771    0.83745   1.00
H2       0.67162    0.18379    0.84156   1.00
H2       0.34544    0.46111    1.12654   1.00
H2       0.29412    0.46664    1.10968   1.00
H2       0.30926    0.42181    1.13632   1.00
H2       0.37745    0.35693    0.84330   1.00
H2       0.35299    0.32402    0.80771   1.00
H2       0.34474    0.31734    0.86097   1.00
C5       0.61712    0.54855    0.61782   1.00
H2       0.61825    0.52000    0.60255   1.00
H2       0.64157    0.54818    0.63910   1.00
C5       0.62276    0.58172    0.58806   1.00
C5       0.66631    0.58761    0.57877   1.00
H2       0.61060    0.60944    0.59985   1.00
O3       0.48445    0.56909    0.77000   1.00
C4       0.49986    0.49960    0.72900   1.00
C3c      0.53408    0.50660    0.70757   1.00
H1       0.56119    0.51204    0.72275   1.00
C3d      0.46496    0.49203    0.70865   1.00
C3       0.53385    0.50728    0.66646   1.00
O2       0.56919    0.50956    0.64752   1.00
C3       0.46447    0.49342    0.66773   1.00
H1       0.43674    0.48881    0.65343   1.00
C2       0.49872    0.50088    0.64561   1.00
C5       0.44430    0.57825    0.77121   1.00
H2       0.43357    0.58251    0.80162   1.00
H2       0.42650    0.55477    0.75734   1.00
C5       0.43844    0.61617    0.74871   1.00
H2       0.45017    0.61226    0.71863   1.00
H2       0.45605    0.63948    0.76302   1.00
C5       0.39502    0.62762    0.74738   1.00
H2       0.38305    0.63131    0.77732   1.00
H2       0.37762    0.60500    0.73189   1.00
C5       0.39005    0.66657    0.72555   1.00
C5       0.42479    0.44846    0.73895   1.00
C5       0.57816    0.54898    0.63930   1.00
H2       0.44820    0.43855    0.75912   1.00
H2       0.42452    0.42896    0.71288   1.00
H2       0.58073    0.56590    0.66700   1.00
H2       0.55529    0.56347    0.62105   1.00
H2       0.60819    0.57478    0.55970   1.00
H2       0.40174    0.40513    0.80753   1.00
H2       0.38754    0.38120    0.76237   1.00
C2       0.49780    0.50153    0.85395   1.00
C3       0.50764    0.46684    0.83403   1.00
O2       0.50709    0.43148    0.85326   1.00
C3       0.49067    0.53561    0.83174   1.00
H1       0.48407    0.56286    0.84615   1.00
C3a      0.50912    0.46667    0.79287   1.00
H1       0.51450    0.43938    0.77798   1.00
C3b      0.49095    0.53504    0.79078   1.00
C4       0.50014    0.50040    0.77100   1.00
O3       0.42994    0.48791    0.72833   1.00
C5       0.54542    0.41986    0.86280   1.00
H2       0.56384    0.41678    0.83609   1.00
C5       0.54239    0.38047    0.88326   1.00
H2       0.55949    0.44137    0.88274   1.00
H2       0.53857    0.35742    0.86068   1.00
H2       0.51511    0.38076    0.90093   1.00
C5       0.57794    0.37141    0.90918   1.00
H2       0.60514    0.37429    0.89176   1.00
C5       0.57556    0.32961    0.92547   1.00
H2       0.57931    0.39141    0.93493   1.00
C5       0.38564    0.44521    0.75983   1.00
H2       0.36193    0.44856    0.73785   1.00
H2       0.38301    0.47019    0.78048   1.00
C5       0.38154    0.40636    0.78200   1.00
C5       0.33969    0.40205    0.79775   1.00
H2       0.67627    0.56439    0.55714   1.00
C5       0.67244    0.62836    0.56088   1.00
H2       0.68407    0.58502    0.60677   1.00
C5       0.34653    0.67329    0.71663   1.00
H2       0.40145    0.69142    0.74449   1.00
H2       0.40718    0.66558    0.69707   1.00
C5       0.61456    0.31892    0.94503   1.00
H2       0.55106    0.32783    0.94789   1.00
H2       0.56942    0.30837    0.90063   1.00
H2       0.33105    0.42976    0.81398   1.00
H2       0.31876    0.39707    0.77239   1.00
C5       0.33779    0.36703    0.82583   1.00
H2       0.64356    0.63963    0.54884   1.00
H2       0.68357    0.64919    0.58429   1.00
H2       0.69471    0.62642    0.53626   1.00
H2       0.32837    0.64992    0.73180   1.00
H2       0.33745    0.70330    0.72771   1.00
H2       0.34156    0.67162    0.68379   1.00
H2       0.62654    0.34544    0.96111   1.00
H2       0.60968    0.29412    0.96664   1.00
H2       0.63632    0.30926    0.92181   1.00
H2       0.34330    0.37745    0.85693   1.00
H2       0.30771    0.35299    0.82402   1.00
H2       0.36097    0.34474    0.81734   1.00
C5       0.61712    0.95145    0.88218   1.00
H2       0.61825    0.98000    0.89745   1.00
H2       0.64157    0.95182    0.86090   1.00
C5       0.62276    0.91828    0.91194   1.00
C5       0.66631    0.91239    0.92123   1.00
H2       0.61060    0.89056    0.90015   1.00
O3       0.48445    0.93091    0.73000   1.00
C4       0.49986    1.00040    0.77100   1.00
C3c      0.53408    0.99340    0.79243   1.00
H1       0.56119    0.98796    0.77725   1.00
C3d      0.46496    1.00797    0.79135   1.00
C3       0.53385    0.99272    0.83354   1.00
O2       0.56919    0.99044    0.85248   1.00
C3       0.46447    1.00658    0.83227   1.00
H1       0.43674    1.01119    0.84657   1.00
C2       0.49872    0.99912    0.85439   1.00
C5       0.44430    0.92175    0.72879   1.00
H2       0.43357    0.91749    0.69838   1.00
H2       0.42650    0.94523    0.74266   1.00
C5       0.43844    0.88383    0.75129   1.00
H2       0.45017    0.88774    0.78137   1.00
H2       0.45605    0.86052    0.73698   1.00
C5       0.39502    0.87238    0.75262   1.00
H2       0.38305    0.86869    0.72268   1.00
H2       0.37762    0.89500    0.76811   1.00
C5       0.39005    0.83343    0.77445   1.00
C5       0.42479    1.05154    0.76105   1.00
C5       0.57816    0.95102    0.86070   1.00
H2       0.44820    1.06145    0.74088   1.00
H2       0.42452    1.07104    0.78712   1.00
H2       0.58073    0.93410    0.83300   1.00
H2       0.55529    0.93653    0.87895   1.00
H2       0.60819    0.92522    0.94030   1.00
H2       0.40174    1.09487    0.69247   1.00
H2       0.38754    1.11880    0.73763   1.00
C2       0.49780    0.99847    0.64605   1.00
C3       0.50764    1.03316    0.66597   1.00
O2       0.50709    1.06852    0.64674   1.00
C3       0.49067    0.96439    0.66826   1.00
H1       0.48407    0.93714    0.65385   1.00
C3a      0.50912    1.03333    0.70713   1.00
H1       0.51450    1.06062    0.72202   1.00
C3b      0.49095    0.96496    0.70922   1.00
C4       0.50014    0.99960    0.72900   1.00
O3       0.42994    1.01209    0.77167   1.00
C5       0.54542    1.08014    0.63720   1.00
H2       0.56384    1.08322    0.66391   1.00
C5       0.54239    1.11953    0.61674   1.00
H2       0.55949    1.05863    0.61726   1.00
H2       0.53857    1.14258    0.63932   1.00
H2       0.51511    1.11924    0.59907   1.00
C5       0.57794    1.12859    0.59082   1.00
H2       0.60514    1.12571    0.60824   1.00
C5       0.57556    1.17039    0.57453   1.00
H2       0.57931    1.10859    0.56507   1.00
C5       0.38564    1.05479    0.74017   1.00
H2       0.36193    1.05144    0.76215   1.00
H2       0.38301    1.02981    0.71952   1.00
C5       0.38154    1.09364    0.71800   1.00
C5       0.33969    1.09795    0.70225   1.00
H2       0.67627    0.93561    0.94286   1.00
C5       0.67244    0.87164    0.93912   1.00
H2       0.68407    0.91498    0.89323   1.00
C5       0.34653    0.82671    0.78337   1.00
H2       0.40145    0.80858    0.75551   1.00
H2       0.40718    0.83442    0.80293   1.00
C5       0.61456    1.18108    0.55497   1.00
H2       0.55106    1.17217    0.55211   1.00
H2       0.56942    1.19163    0.59937   1.00
H2       0.33105    1.07024    0.68602   1.00
H2       0.31876    1.10293    0.72761   1.00
C5       0.33779    1.13297    0.67417   1.00
H2       0.64356    0.86037    0.95116   1.00
H2       0.68357    0.85081    0.91571   1.00
H2       0.69471    0.87358    0.96374   1.00
H2       0.32837    0.85008    0.76820   1.00
H2       0.33745    0.79670    0.77229   1.00
H2       0.34156    0.82838    0.81621   1.00
H2       0.62654    1.15456    0.53889   1.00
H2       0.60968    1.20588    0.53336   1.00
H2       0.63632    1.19074    0.57819   1.00
H2       0.34330    1.12255    0.64307   1.00
H2       0.30771    1.14701    0.67598   1.00
H2       0.36097    1.15526    0.68266   1.00
C5       0.45145    1.38218    0.61712   1.00
H2       0.48000    1.39745    0.61825   1.00
H2       0.45182    1.36090    0.64157   1.00
C5       0.41828    1.41194    0.62276   1.00
C5       0.41239    1.42123    0.66631   1.00
H2       0.39056    1.40015    0.61060   1.00
O3       0.43091    1.23000    0.48445   1.00
C4       0.50040    1.27100    0.49986   1.00
C3c      0.49340    1.29243    0.53408   1.00
H1       0.48796    1.27725    0.56119   1.00
C3d      0.50797    1.29135    0.46496   1.00
C3       0.49272    1.33354    0.53385   1.00
O2       0.49044    1.35248    0.56919   1.00
C3       0.50658    1.33227    0.46447   1.00
H1       0.51119    1.34657    0.43674   1.00
C2       0.49912    1.35439    0.49872   1.00
C5       0.42175    1.22879    0.44430   1.00
H2       0.41749    1.19838    0.43357   1.00
H2       0.44523    1.24266    0.42650   1.00
C5       0.38383    1.25129    0.43844   1.00
H2       0.38774    1.28137    0.45017   1.00
H2       0.36052    1.23698    0.45605   1.00
C5       0.37238    1.25262    0.39502   1.00
H2       0.36869    1.22268    0.38305   1.00
H2       0.39500    1.26811    0.37762   1.00
C5       0.33343    1.27445    0.39005   1.00
C5       0.55154    1.26105    0.42479   1.00
C5       0.45102    1.36070    0.57816   1.00
H2       0.56145    1.24088    0.44820   1.00
H2       0.57104    1.28712    0.42452   1.00
H2       0.43410    1.33300    0.58073   1.00
H2       0.43653    1.37895    0.55529   1.00
H2       0.42522    1.44030    0.60819   1.00
H2       0.59487    1.19247    0.40174   1.00
H2       0.61880    1.23763    0.38754   1.00
C2       0.49847    1.14605    0.49780   1.00
C3       0.53316    1.16597    0.50764   1.00
O2       0.56852    1.14674    0.50709   1.00
C3       0.46439    1.16826    0.49067   1.00
H1       0.43714    1.15385    0.48407   1.00
C3a      0.53333    1.20713    0.50912   1.00
H1       0.56062    1.22202    0.51450   1.00
C3b      0.46496    1.20922    0.49095   1.00
C4       0.49960    1.22900    0.50014   1.00
O3       0.51209    1.27167    0.42994   1.00
C5       0.58014    1.13720    0.54542   1.00
H2       0.58322    1.16391    0.56384   1.00
C5       0.61953    1.11674    0.54239   1.00
H2       0.55863    1.11726    0.55949   1.00
H2       0.64258    1.13932    0.53857   1.00
H2       0.61924    1.09907    0.51511   1.00
C5       0.62859    1.09082    0.57794   1.00
H2       0.62571    1.10824    0.60514   1.00
C5       0.67039    1.07453    0.57556   1.00
H2       0.60859    1.06507    0.57931   1.00
C5       0.55479    1.24017    0.38564   1.00
H2       0.55144    1.26215    0.36193   1.00
H2       0.52981    1.21952    0.38301   1.00
C5       0.59364    1.21800    0.38154   1.00
C5       0.59795    1.20225    0.33969   1.00
H2       0.43561    1.44286    0.67627   1.00
C5       0.37164    1.43912    0.67244   1.00
H2       0.41498    1.39323    0.68407   1.00
C5       0.32671    1.28337    0.34653   1.00
H2       0.30858    1.25551    0.40145   1.00
H2       0.33442    1.30293    0.40718   1.00
C5       0.68108    1.05497    0.61456   1.00
H2       0.67217    1.05211    0.55106   1.00
H2       0.69163    1.09937    0.56942   1.00
H2       0.57024    1.18602    0.33105   1.00
H2       0.60293    1.22761    0.31876   1.00
C5       0.63297    1.17417    0.33779   1.00
H2       0.36037    1.45116    0.64356   1.00
H2       0.35081    1.41571    0.68357   1.00
H2       0.37358    1.46374    0.69471   1.00
H2       0.35008    1.26820    0.32837   1.00
H2       0.29670    1.27229    0.33745   1.00
H2       0.32838    1.31621    0.34156   1.00
H2       0.65456    1.03889    0.62654   1.00
H2       0.70588    1.03336    0.60968   1.00
H2       0.69074    1.07819    0.63632   1.00
H2       0.62255    1.14307    0.34330   1.00
H2       0.64701    1.17598    0.30771   1.00
H2       0.65526    1.18266    0.36097   1.00
C5       0.11782    1.11712    0.54855   1.00
H2       0.10255    1.11825    0.52000   1.00
H2       0.13910    1.14157    0.54818   1.00
C5       0.08806    1.12276    0.58172   1.00
C5       0.07877    1.16631    0.58761   1.00
H2       0.09985    1.11060    0.60944   1.00
O3       0.27000    0.98445    0.56909   1.00
C4       0.22900    0.99986    0.49960   1.00
C3c      0.20757    1.03408    0.50660   1.00
H1       0.22275    1.06119    0.51204   1.00
C3d      0.20865    0.96496    0.49203   1.00
C3       0.16646    1.03385    0.50728   1.00
O2       0.14752    1.06919    0.50956   1.00
C3       0.16773    0.96447    0.49342   1.00
H1       0.15343    0.93674    0.48881   1.00
C2       0.14561    0.99872    0.50088   1.00
C5       0.27121    0.94430    0.57825   1.00
H2       0.30162    0.93357    0.58251   1.00
H2       0.25734    0.92650    0.55477   1.00
C5       0.24871    0.93844    0.61617   1.00
H2       0.21863    0.95017    0.61226   1.00
H2       0.26302    0.95605    0.63948   1.00
C5       0.24738    0.89502    0.62762   1.00
H2       0.27732    0.88305    0.63131   1.00
H2       0.23189    0.87762    0.60500   1.00
C5       0.22555    0.89005    0.66657   1.00
C5       0.23895    0.92479    0.44846   1.00
C5       0.13930    1.07816    0.54898   1.00
H2       0.25912    0.94820    0.43855   1.00
H2       0.21288    0.92452    0.42896   1.00
H2       0.16700    1.08073    0.56590   1.00
H2       0.12105    1.05529    0.56347   1.00
H2       0.05970    1.10819    0.57478   1.00
H2       0.30753    0.90174    0.40513   1.00
H2       0.26237    0.88754    0.38120   1.00
C2       0.35395    0.99780    0.50153   1.00
C3       0.33403    1.00764    0.46684   1.00
O2       0.35326    1.00709    0.43148   1.00
C3       0.33174    0.99067    0.53561   1.00
H1       0.34615    0.98407    0.56286   1.00
C3a      0.29287    1.00912    0.46667   1.00
H1       0.27798    1.01450    0.43938   1.00
C3b      0.29078    0.99095    0.53504   1.00
C4       0.27100    1.00014    0.50040   1.00
O3       0.22833    0.92994    0.48791   1.00
C5       0.36280    1.04542    0.41986   1.00
H2       0.33609    1.06384    0.41678   1.00
C5       0.38326    1.04239    0.38047   1.00
H2       0.38274    1.05949    0.44137   1.00
H2       0.36068    1.03857    0.35742   1.00
H2       0.40093    1.01511    0.38076   1.00
C5       0.40918    1.07794    0.37141   1.00
H2       0.39176    1.10514    0.37429   1.00
C5       0.42547    1.07556    0.32961   1.00
H2       0.43493    1.07931    0.39141   1.00
C5       0.25983    0.88564    0.44521   1.00
H2       0.23785    0.86193    0.44856   1.00
H2       0.28048    0.88301    0.47019   1.00
C5       0.28200    0.88154    0.40636   1.00
C5       0.29775    0.83969    0.40205   1.00
H2       0.05714    1.17627    0.56439   1.00
C5       0.06088    1.17244    0.62836   1.00
H2       0.10677    1.18407    0.58502   1.00
C5       0.21663    0.84653    0.67329   1.00
H2       0.24449    0.90145    0.69142   1.00
H2       0.19707    0.90718    0.66558   1.00
C5       0.44503    1.11456    0.31892   1.00
H2       0.44789    1.05106    0.32783   1.00
H2       0.40063    1.06942    0.30837   1.00
H2       0.31398    0.83105    0.42976   1.00
H2       0.27239    0.81876    0.39707   1.00
C5       0.32583    0.83779    0.36703   1.00
H2       0.04884    1.14356    0.63963   1.00
H2       0.08429    1.18357    0.64919   1.00
H2       0.03626    1.19471    0.62642   1.00
H2       0.23180    0.82837    0.64992   1.00
H2       0.22771    0.83745    0.70330   1.00
H2       0.18379    0.84156    0.67162   1.00
H2       0.46111    1.12654    0.34544   1.00
H2       0.46664    1.10968    0.29412   1.00
H2       0.42181    1.13632    0.30926   1.00
H2       0.35693    0.84330    0.37745   1.00
H2       0.32402    0.80771    0.35299   1.00
H2       0.31734    0.86097    0.34474   1.00
C5       0.88218    1.11712    0.45145   1.00
H2       0.89745    1.11825    0.48000   1.00
H2       0.86090    1.14157    0.45182   1.00
C5       0.91194    1.12276    0.41828   1.00
C5       0.92123    1.16631    0.41239   1.00
H2       0.90015    1.11060    0.39056   1.00
O3       0.73000    0.98445    0.43091   1.00
C4       0.77100    0.99986    0.50040   1.00
C3c      0.79243    1.03408    0.49340   1.00
H1       0.77725    1.06119    0.48796   1.00
C3d      0.79135    0.96496    0.50797   1.00
C3       0.83354    1.03385    0.49272   1.00
O2       0.85248    1.06919    0.49044   1.00
C3       0.83227    0.96447    0.50658   1.00
H1       0.84657    0.93674    0.51119   1.00
C2       0.85439    0.99872    0.49912   1.00
C5       0.72879    0.94430    0.42175   1.00
H2       0.69838    0.93357    0.41749   1.00
H2       0.74266    0.92650    0.44523   1.00
C5       0.75129    0.93844    0.38383   1.00
H2       0.78137    0.95017    0.38774   1.00
H2       0.73698    0.95605    0.36052   1.00
C5       0.75262    0.89502    0.37238   1.00
H2       0.72268    0.88305    0.36869   1.00
H2       0.76811    0.87762    0.39500   1.00
C5       0.77445    0.89005    0.33343   1.00
C5       0.76105    0.92479    0.55154   1.00
C5       0.86070    1.07816    0.45102   1.00
H2       0.74088    0.94820    0.56145   1.00
H2       0.78712    0.92452    0.57104   1.00
H2       0.83300    1.08073    0.43410   1.00
H2       0.87895    1.05529    0.43653   1.00
H2       0.94030    1.10819    0.42522   1.00
H2       0.69247    0.90174    0.59487   1.00
H2       0.73763    0.88754    0.61880   1.00
C2       0.64605    0.99780    0.49847   1.00
C3       0.66597    1.00764    0.53316   1.00
O2       0.64674    1.00709    0.56852   1.00
C3       0.66826    0.99067    0.46439   1.00
H1       0.65385    0.98407    0.43714   1.00
C3a      0.70713    1.00912    0.53333   1.00
H1       0.72202    1.01450    0.56062   1.00
C3b      0.70922    0.99095    0.46496   1.00
C4       0.72900    1.00014    0.49960   1.00
O3       0.77167    0.92994    0.51209   1.00
C5       0.63720    1.04542    0.58014   1.00
H2       0.66391    1.06384    0.58322   1.00
C5       0.61674    1.04239    0.61953   1.00
H2       0.61726    1.05949    0.55863   1.00
H2       0.63932    1.03857    0.64258   1.00
H2       0.59907    1.01511    0.61924   1.00
C5       0.59082    1.07794    0.62859   1.00
H2       0.60824    1.10514    0.62571   1.00
C5       0.57453    1.07556    0.67039   1.00
H2       0.56507    1.07931    0.60859   1.00
C5       0.74017    0.88564    0.55479   1.00
H2       0.76215    0.86193    0.55144   1.00
H2       0.71952    0.88301    0.52981   1.00
C5       0.71800    0.88154    0.59364   1.00
C5       0.70225    0.83969    0.59795   1.00
H2       0.94286    1.17627    0.43561   1.00
C5       0.93912    1.17244    0.37164   1.00
H2       0.89323    1.18407    0.41498   1.00
C5       0.78337    0.84653    0.32671   1.00
H2       0.75551    0.90145    0.30858   1.00
H2       0.80293    0.90718    0.33442   1.00
C5       0.55497    1.11456    0.68108   1.00
H2       0.55211    1.05106    0.67217   1.00
H2       0.59937    1.06942    0.69163   1.00
H2       0.68602    0.83105    0.57024   1.00
H2       0.72761    0.81876    0.60293   1.00
C5       0.67417    0.83779    0.63297   1.00
H2       0.95116    1.14356    0.36037   1.00
H2       0.91571    1.18357    0.35081   1.00
H2       0.96374    1.19471    0.37358   1.00
H2       0.76820    0.82837    0.35008   1.00
H2       0.77229    0.83745    0.29670   1.00
H2       0.81621    0.84156    0.32838   1.00
H2       0.53889    1.12654    0.65456   1.00
H2       0.53336    1.10968    0.70588   1.00
H2       0.57819    1.13632    0.69074   1.00
H2       0.64307    0.84330    0.62255   1.00
H2       0.67598    0.80771    0.64701   1.00
H2       0.68266    0.86097    0.65526   1.00
C5       0.54855    0.61782    0.61712   1.00
H2       0.52000    0.60255    0.61825   1.00
H2       0.54818    0.63910    0.64157   1.00
C5       0.58172    0.58806    0.62276   1.00
C5       0.58761    0.57877    0.66631   1.00
H2       0.60944    0.59985    0.61060   1.00
O3       0.56909    0.77000    0.48445   1.00
C4       0.49960    0.72900    0.49986   1.00
C3c      0.50660    0.70757    0.53408   1.00
H1       0.51204    0.72275    0.56119   1.00
C3d      0.49203    0.70865    0.46496   1.00
C3       0.50728    0.66646    0.53385   1.00
O2       0.50956    0.64752    0.56919   1.00
C3       0.49342    0.66773    0.46447   1.00
H1       0.48881    0.65343    0.43674   1.00
C2       0.50088    0.64561    0.49872   1.00
C5       0.57825    0.77121    0.44430   1.00
H2       0.58251    0.80162    0.43357   1.00
H2       0.55477    0.75734    0.42650   1.00
C5       0.61617    0.74871    0.43844   1.00
H2       0.61226    0.71863    0.45017   1.00
H2       0.63948    0.76302    0.45605   1.00
C5       0.62762    0.74738    0.39502   1.00
H2       0.63131    0.77732    0.38305   1.00
H2       0.60500    0.73189    0.37762   1.00
C5       0.66657    0.72555    0.39005   1.00
C5       0.44846    0.73895    0.42479   1.00
C5       0.54898    0.63930    0.57816   1.00
H2       0.43855    0.75912    0.44820   1.00
H2       0.42896    0.71288    0.42452   1.00
H2       0.56590    0.66700    0.58073   1.00
H2       0.56347    0.62105    0.55529   1.00
H2       0.57478    0.55970    0.60819   1.00
H2       0.40513    0.80753    0.40174   1.00
H2       0.38120    0.76237    0.38754   1.00
C2       0.50153    0.85395    0.49780   1.00
C3       0.46684    0.83403    0.50764   1.00
O2       0.43148    0.85326    0.50709   1.00
C3       0.53561    0.83174    0.49067   1.00
H1       0.56286    0.84615    0.48407   1.00
C3a      0.46667    0.79287    0.50912   1.00
H1       0.43938    0.77798    0.51450   1.00
C3b      0.53504    0.79078    0.49095   1.00
C4       0.50040    0.77100    0.50014   1.00
O3       0.48791    0.72833    0.42994   1.00
C5       0.41986    0.86280    0.54542   1.00
H2       0.41678    0.83609    0.56384   1.00
C5       0.38047    0.88326    0.54239   1.00
H2       0.44137    0.88274    0.55949   1.00
H2       0.35742    0.86068    0.53857   1.00
H2       0.38076    0.90093    0.51511   1.00
C5       0.37141    0.90918    0.57794   1.00
H2       0.37429    0.89176    0.60514   1.00
C5       0.32961    0.92547    0.57556   1.00
H2       0.39141    0.93493    0.57931   1.00
C5       0.44521    0.75983    0.38564   1.00
H2       0.44856    0.73785    0.36193   1.00
H2       0.47019    0.78048    0.38301   1.00
C5       0.40636    0.78200    0.38154   1.00
C5       0.40205    0.79775    0.33969   1.00
H2       0.56439    0.55714    0.67627   1.00
C5       0.62836    0.56088    0.67244   1.00
H2       0.58502    0.60677    0.68407   1.00
C5       0.67329    0.71663    0.34653   1.00
H2       0.69142    0.74449    0.40145   1.00
H2       0.66558    0.69707    0.40718   1.00
C5       0.31892    0.94503    0.61456   1.00
H2       0.32783    0.94789    0.55106   1.00
H2       0.30837    0.90063    0.56942   1.00
H2       0.42976    0.81398    0.33105   1.00
H2       0.39707    0.77239    0.31876   1.00
C5       0.36703    0.82583    0.33779   1.00
H2       0.63963    0.54884    0.64356   1.00
H2       0.64919    0.58429    0.68357   1.00
H2       0.62642    0.53626    0.69471   1.00
H2       0.64992    0.73180    0.32837   1.00
H2       0.70330    0.72771    0.33745   1.00
H2       0.67162    0.68379    0.34156   1.00
H2       0.34544    0.96111    0.62654   1.00
H2       0.29412    0.96664    0.60968   1.00
H2       0.30926    0.92181    0.63632   1.00
H2       0.37745    0.85693    0.34330   1.00
H2       0.35299    0.82402    0.30771   1.00
H2       0.34474    0.81734    0.36097   1.00
C5       0.61712    1.04855    0.11782   1.00
H2       0.61825    1.02000    0.10255   1.00
H2       0.64157    1.04818    0.13910   1.00
C5       0.62276    1.08172    0.08806   1.00
C5       0.66631    1.08761    0.07877   1.00
H2       0.61060    1.10944    0.09985   1.00
O3       0.48445    1.06909    0.27000   1.00
C4       0.49986    0.99960    0.22900   1.00
C3c      0.53408    1.00660    0.20757   1.00
H1       0.56119    1.01204    0.22275   1.00
C3d      0.46496    0.99203    0.20865   1.00
C3       0.53385    1.00728    0.16646   1.00
O2       0.56919    1.00956    0.14752   1.00
C3       0.46447    0.99342    0.16773   1.00
H1       0.43674    0.98881    0.15343   1.00
C2       0.49872    1.00088    0.14561   1.00
C5       0.44430    1.07825    0.27121   1.00
H2       0.43357    1.08251    0.30162   1.00
H2       0.42650    1.05477    0.25734   1.00
C5       0.43844    1.11617    0.24871   1.00
H2       0.45017    1.11226    0.21863   1.00
H2       0.45605    1.13948    0.26302   1.00
C5       0.39502    1.12762    0.24738   1.00
H2       0.38305    1.13131    0.27732   1.00
H2       0.37762    1.10500    0.23189   1.00
C5       0.39005    1.16657    0.22555   1.00
C5       0.42479    0.94846    0.23895   1.00
C5       0.57816    1.04898    0.13930   1.00
H2       0.44820    0.93855    0.25912   1.00
H2       0.42452    0.92896    0.21288   1.00
H2       0.58073    1.06590    0.16700   1.00
H2       0.55529    1.06347    0.12105   1.00
H2       0.60819    1.07478    0.05970   1.00
H2       0.40174    0.90513    0.30753   1.00
H2       0.38754    0.88120    0.26237   1.00
C2       0.49780    1.00153    0.35395   1.00
C3       0.50764    0.96684    0.33403   1.00
O2       0.50709    0.93148    0.35326   1.00
C3       0.49067    1.03561    0.33174   1.00
H1       0.48407    1.06286    0.34615   1.00
C3a      0.50912    0.96667    0.29287   1.00
H1       0.51450    0.93938    0.27798   1.00
C3b      0.49095    1.03504    0.29078   1.00
C4       0.50014    1.00040    0.27100   1.00
O3       0.42994    0.98791    0.22833   1.00
C5       0.54542    0.91986    0.36280   1.00
H2       0.56384    0.91678    0.33609   1.00
C5       0.54239    0.88047    0.38326   1.00
H2       0.55949    0.94137    0.38274   1.00
H2       0.53857    0.85742    0.36068   1.00
H2       0.51511    0.88076    0.40093   1.00
C5       0.57794    0.87141    0.40918   1.00
H2       0.60514    0.87429    0.39176   1.00
C5       0.57556    0.82961    0.42547   1.00
H2       0.57931    0.89141    0.43493   1.00
C5       0.38564    0.94521    0.25983   1.00
H2       0.36193    0.94856    0.23785   1.00
H2       0.38301    0.97019    0.28048   1.00
C5       0.38154    0.90636    0.28200   1.00
C5       0.33969    0.90205    0.29775   1.00
H2       0.67627    1.06439    0.05714   1.00
C5       0.67244    1.12836    0.06088   1.00
H2       0.68407    1.08502    0.10677   1.00
C5       0.34653    1.17329    0.21663   1.00
H2       0.40145    1.19142    0.24449   1.00
H2       0.40718    1.16558    0.19707   1.00
C5       0.61456    0.81892    0.44503   1.00
H2       0.55106    0.82783    0.44789   1.00
H2       0.56942    0.80837    0.40063   1.00
H2       0.33105    0.92976    0.31398   1.00
H2       0.31876    0.89707    0.27239   1.00
C5       0.33779    0.86703    0.32583   1.00
H2       0.64356    1.13963    0.04884   1.00
H2       0.68357    1.14919    0.08429   1.00
H2       0.69471    1.12642    0.03626   1.00
H2       0.32837    1.14992    0.23180   1.00
H2       0.33745    1.20330    0.22771   1.00
H2       0.34156    1.17162    0.18379   1.00
H2       0.62654    0.84544    0.46111   1.00
H2       0.60968    0.79412    0.46664   1.00
H2       0.63632    0.80926    0.42181   1.00
H2       0.34330    0.87745    0.35693   1.00
H2       0.30771    0.85299    0.32402   1.00
H2       0.36097    0.84474    0.31734   1.00
C5       1.11712    0.45145    0.88218   1.00
H2       1.11825    0.48000    0.89745   1.00
H2       1.14157    0.45182    0.86090   1.00
C5       1.12276    0.41828    0.91194   1.00
C5       1.16631    0.41239    0.92123   1.00
H2       1.11060    0.39056    0.90015   1.00
O3       0.98445    0.43091    0.73000   1.00
C4       0.99986    0.50040    0.77100   1.00
C3c      1.03408    0.49340    0.79243   1.00
H1       1.06119    0.48796    0.77725   1.00
C3d      0.96496    0.50797    0.79135   1.00
C3       1.03385    0.49272    0.83354   1.00
O2       1.06919    0.49044    0.85248   1.00
C3       0.96447    0.50658    0.83227   1.00
H1       0.93674    0.51119    0.84657   1.00
C2       0.99872    0.49912    0.85439   1.00
C5       0.94430    0.42175    0.72879   1.00
H2       0.93357    0.41749    0.69838   1.00
H2       0.92650    0.44523    0.74266   1.00
C5       0.93844    0.38383    0.75129   1.00
H2       0.95017    0.38774    0.78137   1.00
H2       0.95605    0.36052    0.73698   1.00
C5       0.89502    0.37238    0.75262   1.00
H2       0.88305    0.36869    0.72268   1.00
H2       0.87762    0.39500    0.76811   1.00
C5       0.89005    0.33343    0.77445   1.00
C5       0.92479    0.55154    0.76105   1.00
C5       1.07816    0.45102    0.86070   1.00
H2       0.94820    0.56145    0.74088   1.00
H2       0.92452    0.57104    0.78712   1.00
H2       1.08073    0.43410    0.83300   1.00
H2       1.05529    0.43653    0.87895   1.00
H2       1.10819    0.42522    0.94030   1.00
H2       0.90174    0.59487    0.69247   1.00
H2       0.88754    0.61880    0.73763   1.00
C2       0.99780    0.49847    0.64605   1.00
C3       1.00764    0.53316    0.66597   1.00
O2       1.00709    0.56852    0.64674   1.00
C3       0.99067    0.46439    0.66826   1.00
H1       0.98407    0.43714    0.65385   1.00
C3a      1.00912    0.53333    0.70713   1.00
H1       1.01450    0.56062    0.72202   1.00
C3b      0.99095    0.46496    0.70922   1.00
C4       1.00014    0.49960    0.72900   1.00
O3       0.92994    0.51209    0.77167   1.00
C5       1.04542    0.58014    0.63720   1.00
H2       1.06384    0.58322    0.66391   1.00
C5       1.04239    0.61953    0.61674   1.00
H2       1.05949    0.55863    0.61726   1.00
H2       1.03857    0.64258    0.63932   1.00
H2       1.01511    0.61924    0.59907   1.00
C5       1.07794    0.62859    0.59082   1.00
H2       1.10514    0.62571    0.60824   1.00
C5       1.07556    0.67039    0.57453   1.00
H2       1.07931    0.60859    0.56507   1.00
C5       0.88564    0.55479    0.74017   1.00
H2       0.86193    0.55144    0.76215   1.00
H2       0.88301    0.52981    0.71952   1.00
C5       0.88154    0.59364    0.71800   1.00
C5       0.83969    0.59795    0.70225   1.00
H2       1.17627    0.43561    0.94286   1.00
C5       1.17244    0.37164    0.93912   1.00
H2       1.18407    0.41498    0.89323   1.00
C5       0.84653    0.32671    0.78337   1.00
H2       0.90145    0.30858    0.75551   1.00
H2       0.90718    0.33442    0.80293   1.00
C5       1.11456    0.68108    0.55497   1.00
H2       1.05106    0.67217    0.55211   1.00
H2       1.06942    0.69163    0.59937   1.00
H2       0.83105    0.57024    0.68602   1.00
H2       0.81876    0.60293    0.72761   1.00
C5       0.83779    0.63297    0.67417   1.00
H2       1.14356    0.36037    0.95116   1.00
H2       1.18357    0.35081    0.91571   1.00
H2       1.19471    0.37358    0.96374   1.00
H2       0.82837    0.35008    0.76820   1.00
H2       0.83745    0.29670    0.77229   1.00
H2       0.84156    0.32838    0.81621   1.00
H2       1.12654    0.65456    0.53889   1.00
H2       1.10968    0.70588    0.53336   1.00
H2       1.13632    0.69074    0.57819   1.00
H2       0.84330    0.62255    0.64307   1.00
H2       0.80771    0.64701    0.67598   1.00
H2       0.86097    0.65526    0.68266   1.00
C5       0.95145    0.88218    0.61712   1.00
H2       0.98000    0.89745    0.61825   1.00
H2       0.95182    0.86090    0.64157   1.00
C5       0.91828    0.91194    0.62276   1.00
C5       0.91239    0.92123    0.66631   1.00
H2       0.89056    0.90015    0.61060   1.00
O3       0.93091    0.73000    0.48445   1.00
C4       1.00040    0.77100    0.49986   1.00
C3c      0.99340    0.79243    0.53408   1.00
H1       0.98796    0.77725    0.56119   1.00
C3d      1.00797    0.79135    0.46496   1.00
C3       0.99272    0.83354    0.53385   1.00
O2       0.99044    0.85248    0.56919   1.00
C3       1.00658    0.83227    0.46447   1.00
H1       1.01119    0.84657    0.43674   1.00
C2       0.99912    0.85439    0.49872   1.00
C5       0.92175    0.72879    0.44430   1.00
H2       0.91749    0.69838    0.43357   1.00
H2       0.94523    0.74266    0.42650   1.00
C5       0.88383    0.75129    0.43844   1.00
H2       0.88774    0.78137    0.45017   1.00
H2       0.86052    0.73698    0.45605   1.00
C5       0.87238    0.75262    0.39502   1.00
H2       0.86869    0.72268    0.38305   1.00
H2       0.89500    0.76811    0.37762   1.00
C5       0.83343    0.77445    0.39005   1.00
C5       1.05154    0.76105    0.42479   1.00
C5       0.95102    0.86070    0.57816   1.00
H2       1.06145    0.74088    0.44820   1.00
H2       1.07104    0.78712    0.42452   1.00
H2       0.93410    0.83300    0.58073   1.00
H2       0.93653    0.87895    0.55529   1.00
H2       0.92522    0.94030    0.60819   1.00
H2       1.09487    0.69247    0.40174   1.00
H2       1.11880    0.73763    0.38754   1.00
C2       0.99847    0.64605    0.49780   1.00
C3       1.03316    0.66597    0.50764   1.00
O2       1.06852    0.64674    0.50709   1.00
C3       0.96439    0.66826    0.49067   1.00
H1       0.93714    0.65385    0.48407   1.00
C3a      1.03333    0.70713    0.50912   1.00
H1       1.06062    0.72202    0.51450   1.00
C3b      0.96496    0.70922    0.49095   1.00
C4       0.99960    0.72900    0.50014   1.00
O3       1.01209    0.77167    0.42994   1.00
C5       1.08014    0.63720    0.54542   1.00
H2       1.08322    0.66391    0.56384   1.00
C5       1.11953    0.61674    0.54239   1.00
H2       1.05863    0.61726    0.55949   1.00
H2       1.14258    0.63932    0.53857   1.00
H2       1.11924    0.59907    0.51511   1.00
C5       1.12859    0.59082    0.57794   1.00
H2       1.12571    0.60824    0.60514   1.00
C5       1.17039    0.57453    0.57556   1.00
H2       1.10859    0.56507    0.57931   1.00
C5       1.05479    0.74017    0.38564   1.00
H2       1.05144    0.76215    0.36193   1.00
H2       1.02981    0.71952    0.38301   1.00
C5       1.09364    0.71800    0.38154   1.00
C5       1.09795    0.70225    0.33969   1.00
H2       0.93561    0.94286    0.67627   1.00
C5       0.87164    0.93912    0.67244   1.00
H2       0.91498    0.89323    0.68407   1.00
C5       0.82671    0.78337    0.34653   1.00
H2       0.80858    0.75551    0.40145   1.00
H2       0.83442    0.80293    0.40718   1.00
C5       1.18108    0.55497    0.61456   1.00
H2       1.17217    0.55211    0.55106   1.00
H2       1.19163    0.59937    0.56942   1.00
H2       1.07024    0.68602    0.33105   1.00
H2       1.10293    0.72761    0.31876   1.00
C5       1.13297    0.67417    0.33779   1.00
H2       0.86037    0.95116    0.64356   1.00
H2       0.85081    0.91571    0.68357   1.00
H2       0.87358    0.96374    0.69471   1.00
H2       0.85008    0.76820    0.32837   1.00
H2       0.79670    0.77229    0.33745   1.00
H2       0.82838    0.81621    0.34156   1.00
H2       1.15456    0.53889    0.62654   1.00
H2       1.20588    0.53336    0.60968   1.00
H2       1.19074    0.57819    0.63632   1.00
H2       1.12255    0.64307    0.34330   1.00
H2       1.14701    0.67598    0.30771   1.00
H2       1.15526    0.68266    0.36097   1.00
C5       0.61782    0.61712    0.54855   1.00
H2       0.60255    0.61825    0.52000   1.00
H2       0.63910    0.64157    0.54818   1.00
C5       0.58806    0.62276    0.58172   1.00
C5       0.57877    0.66631    0.58761   1.00
H2       0.59985    0.61060    0.60944   1.00
O3       0.77000    0.48445    0.56909   1.00
C4       0.72900    0.49986    0.49960   1.00
C3c      0.70757    0.53408    0.50660   1.00
H1       0.72275    0.56119    0.51204   1.00
C3d      0.70865    0.46496    0.49203   1.00
C3       0.66646    0.53385    0.50728   1.00
O2       0.64752    0.56919    0.50956   1.00
C3       0.66773    0.46447    0.49342   1.00
H1       0.65343    0.43674    0.48881   1.00
C2       0.64561    0.49872    0.50088   1.00
C5       0.77121    0.44430    0.57825   1.00
H2       0.80162    0.43357    0.58251   1.00
H2       0.75734    0.42650    0.55477   1.00
C5       0.74871    0.43844    0.61617   1.00
H2       0.71863    0.45017    0.61226   1.00
H2       0.76302    0.45605    0.63948   1.00
C5       0.74738    0.39502    0.62762   1.00
H2       0.77732    0.38305    0.63131   1.00
H2       0.73189    0.37762    0.60500   1.00
C5       0.72555    0.39005    0.66657   1.00
C5       0.73895    0.42479    0.44846   1.00
C5       0.63930    0.57816    0.54898   1.00
H2       0.75912    0.44820    0.43855   1.00
H2       0.71288    0.42452    0.42896   1.00
H2       0.66700    0.58073    0.56590   1.00
H2       0.62105    0.55529    0.56347   1.00
H2       0.55970    0.60819    0.57478   1.00
H2       0.80753    0.40174    0.40513   1.00
H2       0.76237    0.38754    0.38120   1.00
C2       0.85395    0.49780    0.50153   1.00
C3       0.83403    0.50764    0.46684   1.00
O2       0.85326    0.50709    0.43148   1.00
C3       0.83174    0.49067    0.53561   1.00
H1       0.84615    0.48407    0.56286   1.00
C3a      0.79287    0.50912    0.46667   1.00
H1       0.77798    0.51450    0.43938   1.00
C3b      0.79078    0.49095    0.53504   1.00
C4       0.77100    0.50014    0.50040   1.00
O3       0.72833    0.42994    0.48791   1.00
C5       0.86280    0.54542    0.41986   1.00
H2       0.83609    0.56384    0.41678   1.00
C5       0.88326    0.54239    0.38047   1.00
H2       0.88274    0.55949    0.44137   1.00
H2       0.86068    0.53857    0.35742   1.00
H2       0.90093    0.51511    0.38076   1.00
C5       0.90918    0.57794    0.37141   1.00
H2       0.89176    0.60514    0.37429   1.00
C5       0.92547    0.57556    0.32961   1.00
H2       0.93493    0.57931    0.39141   1.00
C5       0.75983    0.38564    0.44521   1.00
H2       0.73785    0.36193    0.44856   1.00
H2       0.78048    0.38301    0.47019   1.00
C5       0.78200    0.38154    0.40636   1.00
C5       0.79775    0.33969    0.40205   1.00
H2       0.55714    0.67627    0.56439   1.00
C5       0.56088    0.67244    0.62836   1.00
H2       0.60677    0.68407    0.58502   1.00
C5       0.71663    0.34653    0.67329   1.00
H2       0.74449    0.40145    0.69142   1.00
H2       0.69707    0.40718    0.66558   1.00
C5       0.94503    0.61456    0.31892   1.00
H2       0.94789    0.55106    0.32783   1.00
H2       0.90063    0.56942    0.30837   1.00
H2       0.81398    0.33105    0.42976   1.00
H2       0.77239    0.31876    0.39707   1.00
C5       0.82583    0.33779    0.36703   1.00
H2       0.54884    0.64356    0.63963   1.00
H2       0.58429    0.68357    0.64919   1.00
H2       0.53626    0.69471    0.62642   1.00
H2       0.73180    0.32837    0.64992   1.00
H2       0.72771    0.33745    0.70330   1.00
H2       0.68379    0.34156    0.67162   1.00
H2       0.96111    0.62654    0.34544   1.00
H2       0.96664    0.60968    0.29412   1.00
H2       0.92181    0.63632    0.30926   1.00
H2       0.85693    0.34330    0.37745   1.00
H2       0.82402    0.30771    0.35299   1.00
H2       0.81734    0.36097    0.34474   1.00
C5       1.38218    0.61712    0.45145   1.00
H2       1.39745    0.61825    0.48000   1.00
H2       1.36090    0.64157    0.45182   1.00
C5       1.41194    0.62276    0.41828   1.00
C5       1.42123    0.66631    0.41239   1.00
H2       1.40015    0.61060    0.39056   1.00
O3       1.23000    0.48445    0.43091   1.00
C4       1.27100    0.49986    0.50040   1.00
C3c      1.29243    0.53408    0.49340   1.00
H1       1.27725    0.56119    0.48796   1.00
C3d      1.29135    0.46496    0.50797   1.00
C3       1.33354    0.53385    0.49272   1.00
O2       1.35248    0.56919    0.49044   1.00
C3       1.33227    0.46447    0.50658   1.00
H1       1.34657    0.43674    0.51119   1.00
C2       1.35439    0.49872    0.49912   1.00
C5       1.22879    0.44430    0.42175   1.00
H2       1.19838    0.43357    0.41749   1.00
H2       1.24266    0.42650    0.44523   1.00
C5       1.25129    0.43844    0.38383   1.00
H2       1.28137    0.45017    0.38774   1.00
H2       1.23698    0.45605    0.36052   1.00
C5       1.25262    0.39502    0.37238   1.00
H2       1.22268    0.38305    0.36869   1.00
H2       1.26811    0.37762    0.39500   1.00
C5       1.27445    0.39005    0.33343   1.00
C5       1.26105    0.42479    0.55154   1.00
C5       1.36070    0.57816    0.45102   1.00
H2       1.24088    0.44820    0.56145   1.00
H2       1.28712    0.42452    0.57104   1.00
H2       1.33300    0.58073    0.43410   1.00
H2       1.37895    0.55529    0.43653   1.00
H2       1.44030    0.60819    0.42522   1.00
H2       1.19247    0.40174    0.59487   1.00
H2       1.23763    0.38754    0.61880   1.00
C2       1.14605    0.49780    0.49847   1.00
C3       1.16597    0.50764    0.53316   1.00
O2       1.14674    0.50709    0.56852   1.00
C3       1.16826    0.49067    0.46439   1.00
H1       1.15385    0.48407    0.43714   1.00
C3a      1.20713    0.50912    0.53333   1.00
H1       1.22202    0.51450    0.56062   1.00
C3b      1.20922    0.49095    0.46496   1.00
C4       1.22900    0.50014    0.49960   1.00
O3       1.27167    0.42994    0.51209   1.00
C5       1.13720    0.54542    0.58014   1.00
H2       1.16391    0.56384    0.58322   1.00
C5       1.11674    0.54239    0.61953   1.00
H2       1.11726    0.55949    0.55863   1.00
H2       1.13932    0.53857    0.64258   1.00
H2       1.09907    0.51511    0.61924   1.00
C5       1.09082    0.57794    0.62859   1.00
H2       1.10824    0.60514    0.62571   1.00
C5       1.07453    0.57556    0.67039   1.00
H2       1.06507    0.57931    0.60859   1.00
C5       1.24017    0.38564    0.55479   1.00
H2       1.26215    0.36193    0.55144   1.00
H2       1.21952    0.38301    0.52981   1.00
C5       1.21800    0.38154    0.59364   1.00
C5       1.20225    0.33969    0.59795   1.00
H2       1.44286    0.67627    0.43561   1.00
C5       1.43912    0.67244    0.37164   1.00
H2       1.39323    0.68407    0.41498   1.00
C5       1.28337    0.34653    0.32671   1.00
H2       1.25551    0.40145    0.30858   1.00
H2       1.30293    0.40718    0.33442   1.00
C5       1.05497    0.61456    0.68108   1.00
H2       1.05211    0.55106    0.67217   1.00
H2       1.09937    0.56942    0.69163   1.00
H2       1.18602    0.33105    0.57024   1.00
H2       1.22761    0.31876    0.60293   1.00
C5       1.17417    0.33779    0.63297   1.00
H2       1.45116    0.64356    0.36037   1.00
H2       1.41571    0.68357    0.35081   1.00
H2       1.46374    0.69471    0.37358   1.00
H2       1.26820    0.32837    0.35008   1.00
H2       1.27229    0.33745    0.29670   1.00
H2       1.31621    0.34156    0.32838   1.00
H2       1.03889    0.62654    0.65456   1.00
H2       1.03336    0.60968    0.70588   1.00
H2       1.07819    0.63632    0.69074   1.00
H2       1.14307    0.34330    0.62255   1.00
H2       1.17598    0.30771    0.64701   1.00
H2       1.18266    0.36097    0.65526   1.00
C5       1.04855    0.11782    0.61712   1.00
H2       1.02000    0.10255    0.61825   1.00
H2       1.04818    0.13910    0.64157   1.00
C5       1.08172    0.08806    0.62276   1.00
C5       1.08761    0.07877    0.66631   1.00
H2       1.10944    0.09985    0.61060   1.00
O3       1.06909    0.27000    0.48445   1.00
C4       0.99960    0.22900    0.49986   1.00
C3c      1.00660    0.20757    0.53408   1.00
H1       1.01204    0.22275    0.56119   1.00
C3d      0.99203    0.20865    0.46496   1.00
C3       1.00728    0.16646    0.53385   1.00
O2       1.00956    0.14752    0.56919   1.00
C3       0.99342    0.16773    0.46447   1.00
H1       0.98881    0.15343    0.43674   1.00
C2       1.00088    0.14561    0.49872   1.00
C5       1.07825    0.27121    0.44430   1.00
H2       1.08251    0.30162    0.43357   1.00
H2       1.05477    0.25734    0.42650   1.00
C5       1.11617    0.24871    0.43844   1.00
H2       1.11226    0.21863    0.45017   1.00
H2       1.13948    0.26302    0.45605   1.00
C5       1.12762    0.24738    0.39502   1.00
H2       1.13131    0.27732    0.38305   1.00
H2       1.10500    0.23189    0.37762   1.00
C5       1.16657    0.22555    0.39005   1.00
C5       0.94846    0.23895    0.42479   1.00
C5       1.04898    0.13930    0.57816   1.00
H2       0.93855    0.25912    0.44820   1.00
H2       0.92896    0.21288    0.42452   1.00
H2       1.06590    0.16700    0.58073   1.00
H2       1.06347    0.12105    0.55529   1.00
H2       1.07478    0.05970    0.60819   1.00
H2       0.90513    0.30753    0.40174   1.00
H2       0.88120    0.26237    0.38754   1.00
C2       1.00153    0.35395    0.49780   1.00
C3       0.96684    0.33403    0.50764   1.00
O2       0.93148    0.35326    0.50709   1.00
C3       1.03561    0.33174    0.49067   1.00
H1       1.06286    0.34615    0.48407   1.00
C3a      0.96667    0.29287    0.50912   1.00
H1       0.93938    0.27798    0.51450   1.00
C3b      1.03504    0.29078    0.49095   1.00
C4       1.00040    0.27100    0.50014   1.00
O3       0.98791    0.22833    0.42994   1.00
C5       0.91986    0.36280    0.54542   1.00
H2       0.91678    0.33609    0.56384   1.00
C5       0.88047    0.38326    0.54239   1.00
H2       0.94137    0.38274    0.55949   1.00
H2       0.85742    0.36068    0.53857   1.00
H2       0.88076    0.40093    0.51511   1.00
C5       0.87141    0.40918    0.57794   1.00
H2       0.87429    0.39176    0.60514   1.00
C5       0.82961    0.42547    0.57556   1.00
H2       0.89141    0.43493    0.57931   1.00
C5       0.94521    0.25983    0.38564   1.00
H2       0.94856    0.23785    0.36193   1.00
H2       0.97019    0.28048    0.38301   1.00
C5       0.90636    0.28200    0.38154   1.00
C5       0.90205    0.29775    0.33969   1.00
H2       1.06439    0.05714    0.67627   1.00
C5       1.12836    0.06088    0.67244   1.00
H2       1.08502    0.10677    0.68407   1.00
C5       1.17329    0.21663    0.34653   1.00
H2       1.19142    0.24449    0.40145   1.00
H2       1.16558    0.19707    0.40718   1.00
C5       0.81892    0.44503    0.61456   1.00
H2       0.82783    0.44789    0.55106   1.00
H2       0.80837    0.40063    0.56942   1.00
H2       0.92976    0.31398    0.33105   1.00
H2       0.89707    0.27239    0.31876   1.00
C5       0.86703    0.32583    0.33779   1.00
H2       1.13963    0.04884    0.64356   1.00
H2       1.14919    0.08429    0.68357   1.00
H2       1.12642    0.03626    0.69471   1.00
H2       1.14992    0.23180    0.32837   1.00
H2       1.20330    0.22771    0.33745   1.00
H2       1.17162    0.18379    0.34156   1.00
H2       0.84544    0.46111    0.62654   1.00
H2       0.79412    0.46664    0.60968   1.00
H2       0.80926    0.42181    0.63632   1.00
H2       0.87745    0.35693    0.34330   1.00
H2       0.85299    0.32402    0.30771   1.00
H2       0.84474    0.31734    0.36097   1.00
C5       1.11712    0.54855    0.11782   1.00
H2       1.11825    0.52000    0.10255   1.00
H2       1.14157    0.54818    0.13910   1.00
C5       1.12276    0.58172    0.08806   1.00
C5       1.16631    0.58761    0.07877   1.00
H2       1.11060    0.60944    0.09985   1.00
O3       0.98445    0.56909    0.27000   1.00
C4       0.99986    0.49960    0.22900   1.00
C3c      1.03408    0.50660    0.20757   1.00
H1       1.06119    0.51204    0.22275   1.00
C3d      0.96496    0.49203    0.20865   1.00
C3       1.03385    0.50728    0.16646   1.00
O2       1.06919    0.50956    0.14752   1.00
C3       0.96447    0.49342    0.16773   1.00
H1       0.93674    0.48881    0.15343   1.00
C2       0.99872    0.50088    0.14561   1.00
C5       0.94430    0.57825    0.27121   1.00
H2       0.93357    0.58251    0.30162   1.00
H2       0.92650    0.55477    0.25734   1.00
C5       0.93844    0.61617    0.24871   1.00
H2       0.95017    0.61226    0.21863   1.00
H2       0.95605    0.63948    0.26302   1.00
C5       0.89502    0.62762    0.24738   1.00
H2       0.88305    0.63131    0.27732   1.00
H2       0.87762    0.60500    0.23189   1.00
C5       0.89005    0.66657    0.22555   1.00
C5       0.92479    0.44846    0.23895   1.00
C5       1.07816    0.54898    0.13930   1.00
H2       0.94820    0.43855    0.25912   1.00
H2       0.92452    0.42896    0.21288   1.00
H2       1.08073    0.56590    0.16700   1.00
H2       1.05529    0.56347    0.12105   1.00
H2       1.10819    0.57478    0.05970   1.00
H2       0.90174    0.40513    0.30753   1.00
H2       0.88754    0.38120    0.26237   1.00
C2       0.99780    0.50153    0.35395   1.00
C3       1.00764    0.46684    0.33403   1.00
O2       1.00709    0.43148    0.35326   1.00
C3       0.99067    0.53561    0.33174   1.00
H1       0.98407    0.56286    0.34615   1.00
C3a      1.00912    0.46667    0.29287   1.00
H1       1.01450    0.43938    0.27798   1.00
C3b      0.99095    0.53504    0.29078   1.00
C4       1.00014    0.50040    0.27100   1.00
O3       0.92994    0.48791    0.22833   1.00
C5       1.04542    0.41986    0.36280   1.00
H2       1.06384    0.41678    0.33609   1.00
C5       1.04239    0.38047    0.38326   1.00
H2       1.05949    0.44137    0.38274   1.00
H2       1.03857    0.35742    0.36068   1.00
H2       1.01511    0.38076    0.40093   1.00
C5       1.07794    0.37141    0.40918   1.00
H2       1.10514    0.37429    0.39176   1.00
C5       1.07556    0.32961    0.42547   1.00
H2       1.07931    0.39141    0.43493   1.00
C5       0.88564    0.44521    0.25983   1.00
H2       0.86193    0.44856    0.23785   1.00
H2       0.88301    0.47019    0.28048   1.00
C5       0.88154    0.40636    0.28200   1.00
C5       0.83969    0.40205    0.29775   1.00
H2       1.17627    0.56439    0.05714   1.00
C5       1.17244    0.62836    0.06088   1.00
H2       1.18407    0.58502    0.10677   1.00
C5       0.84653    0.67329    0.21663   1.00
H2       0.90145    0.69142    0.24449   1.00
H2       0.90718    0.66558    0.19707   1.00
C5       1.11456    0.31892    0.44503   1.00
H2       1.05106    0.32783    0.44789   1.00
H2       1.06942    0.30837    0.40063   1.00
H2       0.83105    0.42976    0.31398   1.00
H2       0.81876    0.39707    0.27239   1.00
C5       0.83779    0.36703    0.32583   1.00
H2       1.14356    0.63963    0.04884   1.00
H2       1.18357    0.64919    0.08429   1.00
H2       1.19471    0.62642    0.03626   1.00
H2       0.82837    0.64992    0.23180   1.00
H2       0.83745    0.70330    0.22771   1.00
H2       0.84156    0.67162    0.18379   1.00
H2       1.12654    0.34544    0.46111   1.00
H2       1.10968    0.29412    0.46664   1.00
H2       1.13632    0.30926    0.42181   1.00
H2       0.84330    0.37745    0.35693   1.00
H2       0.80771    0.35299    0.32402   1.00
H2       0.86097    0.34474    0.31734   1.00
