data_IRMOF10_SG202_interpen_Ligand3lp_label_d.

_audit_creation_method             'generated by an auxiliary program of Tobunporous'

_symmetry_space_group_name_H-M     'P 1'
_symmetry_Int_Tables_number        1
_symmetry_cell_setting             triclinic

_cell_length_a                    34.2800
_cell_length_b                    34.2800
_cell_length_c                    34.2800
_cell_angle_alpha                 90.0000
_cell_angle_beta                  90.0000
_cell_angle_gamma                 90.0000

loop_
_atom_site_label
_atom_site_fract_x
_atom_site_fract_y
_atom_site_fract_z
_atom_site_occupancy
O1       0.75000    0.75000    0.75000   1.00
Zn1      0.71720    0.78280    0.78280   1.00
Zn1      0.78280    0.71720    0.78280   1.00
Zn1      0.78280    0.78280    0.71720   1.00
Zn1      0.71720    0.71720    0.71720   1.00
O2       0.72650    0.77350    0.83820   1.00
O2       0.72650    0.83820    0.77350   1.00
O2       0.66180    0.77350    0.77350   1.00
O2       0.77350    0.72650    0.83820   1.00
O2       0.83820    0.72650    0.77350   1.00
O2       0.77350    0.66180    0.77350   1.00
O2       0.77350    0.83820    0.72650   1.00
O2       0.83820    0.77350    0.72650   1.00
O2       0.77350    0.77350    0.66180   1.00
O2       0.66180    0.72650    0.72650   1.00
O2       0.72650    0.66180    0.72650   1.00
O2       0.72650    0.72650    0.66180   1.00
C1       0.75000    0.75000    0.85520   1.00
C1       0.75000    0.85520    0.75000   1.00
C1       0.64480    0.75000    0.75000   1.00
C1       0.85520    0.75000    0.75000   1.00
C1       0.75000    0.64480    0.75000   1.00
C1       0.75000    0.75000    0.64480   1.00
O1       0.25000    0.25000    0.75000   1.00
Zn1      0.21720    0.28280    0.78280   1.00
Zn1      0.28280    0.21720    0.78280   1.00
Zn1      0.28280    0.28280    0.71720   1.00
Zn1      0.21720    0.21720    0.71720   1.00
O2       0.22650    0.27350    0.83820   1.00
O2       0.22650    0.33820    0.77350   1.00
O2       0.16180    0.27350    0.77350   1.00
O2       0.27350    0.22650    0.83820   1.00
O2       0.33820    0.22650    0.77350   1.00
O2       0.27350    0.16180    0.77350   1.00
O2       0.27350    0.33820    0.72650   1.00
O2       0.33820    0.27350    0.72650   1.00
O2       0.27350    0.27350    0.66180   1.00
O2       0.16180    0.22650    0.72650   1.00
O2       0.22650    0.16180    0.72650   1.00
O2       0.22650    0.22650    0.66180   1.00
C1       0.25000    0.25000    0.85520   1.00
C1       0.25000    0.35520    0.75000   1.00
C1       0.14480    0.25000    0.75000   1.00
C1       0.35520    0.25000    0.75000   1.00
C1       0.25000    0.14480    0.75000   1.00
C1       0.25000    0.25000    0.64480   1.00
O1       0.25000    0.75000    0.25000   1.00
Zn1      0.21720    0.78280    0.28280   1.00
Zn1      0.28280    0.71720    0.28280   1.00
Zn1      0.28280    0.78280    0.21720   1.00
Zn1      0.21720    0.71720    0.21720   1.00
O2       0.22650    0.77350    0.33820   1.00
O2       0.22650    0.83820    0.27350   1.00
O2       0.16180    0.77350    0.27350   1.00
O2       0.27350    0.72650    0.33820   1.00
O2       0.33820    0.72650    0.27350   1.00
O2       0.27350    0.66180    0.27350   1.00
O2       0.27350    0.83820    0.22650   1.00
O2       0.33820    0.77350    0.22650   1.00
O2       0.27350    0.77350    0.16180   1.00
O2       0.16180    0.72650    0.22650   1.00
O2       0.22650    0.66180    0.22650   1.00
O2       0.22650    0.72650    0.16180   1.00
C1       0.25000    0.75000    0.35520   1.00
C1       0.25000    0.85520    0.25000   1.00
C1       0.14480    0.75000    0.25000   1.00
C1       0.35520    0.75000    0.25000   1.00
C1       0.25000    0.64480    0.25000   1.00
C1       0.25000    0.75000    0.14480   1.00
O1       0.75000    0.25000    0.25000   1.00
Zn1      0.71720    0.28280    0.28280   1.00
Zn1      0.78280    0.21720    0.28280   1.00
Zn1      0.78280    0.28280    0.21720   1.00
Zn1      0.71720    0.21720    0.21720   1.00
O2       0.72650    0.27350    0.33820   1.00
O2       0.72650    0.33820    0.27350   1.00
O2       0.66180    0.27350    0.27350   1.00
O2       0.77350    0.22650    0.33820   1.00
O2       0.83820    0.22650    0.27350   1.00
O2       0.77350    0.16180    0.27350   1.00
O2       0.77350    0.33820    0.22650   1.00
O2       0.83820    0.27350    0.22650   1.00
O2       0.77350    0.27350    0.16180   1.00
O2       0.66180    0.22650    0.22650   1.00
O2       0.72650    0.16180    0.22650   1.00
O2       0.72650    0.22650    0.16180   1.00
C1       0.75000    0.25000    0.35520   1.00
C1       0.75000    0.35520    0.25000   1.00
C1       0.64480    0.25000    0.25000   1.00
C1       0.85520    0.25000    0.25000   1.00
C1       0.75000    0.14480    0.25000   1.00
C1       0.75000    0.25000    0.14480   1.00
O1       0.25000    0.25000    0.25000   1.00
Zn1      0.28280    0.21720    0.21720   1.00
Zn1      0.21720    0.28280    0.21720   1.00
Zn1      0.21720    0.21720    0.28280   1.00
Zn1      0.28280    0.28280    0.28280   1.00
O2       0.27350    0.22650    0.16180   1.00
O2       0.27350    0.16180    0.22650   1.00
O2       0.33820    0.22650    0.22650   1.00
O2       0.22650    0.27350    0.16180   1.00
O2       0.16180    0.27350    0.22650   1.00
O2       0.22650    0.33820    0.22650   1.00
O2       0.22650    0.16180    0.27350   1.00
O2       0.16180    0.22650    0.27350   1.00
O2       0.22650    0.22650    0.33820   1.00
O2       0.33820    0.27350    0.27350   1.00
O2       0.27350    0.33820    0.27350   1.00
O2       0.27350    0.27350    0.33820   1.00
C1       0.25000    0.25000    0.14480   1.00
C1       0.25000    0.14480    0.25000   1.00
C1       0.35520    0.25000    0.25000   1.00
C1       0.14480    0.25000    0.25000   1.00
C1       0.25000    0.35520    0.25000   1.00
C1       0.25000    0.25000    0.35520   1.00
O1       0.75000    0.75000    0.25000   1.00
Zn1      0.78280    0.71720    0.21720   1.00
Zn1      0.71720    0.78280    0.21720   1.00
Zn1      0.71720    0.71720    0.28280   1.00
Zn1      0.78280    0.78280    0.28280   1.00
O2       0.77350    0.72650    0.16180   1.00
O2       0.77350    0.66180    0.22650   1.00
O2       0.83820    0.72650    0.22650   1.00
O2       0.72650    0.77350    0.16180   1.00
O2       0.66180    0.77350    0.22650   1.00
O2       0.72650    0.83820    0.22650   1.00
O2       0.72650    0.66180    0.27350   1.00
O2       0.66180    0.72650    0.27350   1.00
O2       0.72650    0.72650    0.33820   1.00
O2       0.83820    0.77350    0.27350   1.00
O2       0.77350    0.83820    0.27350   1.00
O2       0.77350    0.77350    0.33820   1.00
C1       0.75000    0.75000    0.14480   1.00
C1       0.75000    0.64480    0.25000   1.00
C1       0.85520    0.75000    0.25000   1.00
C1       0.64480    0.75000    0.25000   1.00
C1       0.75000    0.85520    0.25000   1.00
C1       0.75000    0.75000    0.35520   1.00
O1       0.75000    0.25000    0.75000   1.00
Zn1      0.78280    0.21720    0.71720   1.00
Zn1      0.71720    0.28280    0.71720   1.00
Zn1      0.71720    0.21720    0.78280   1.00
Zn1      0.78280    0.28280    0.78280   1.00
O2       0.77350    0.22650    0.66180   1.00
O2       0.77350    0.16180    0.72650   1.00
O2       0.83820    0.22650    0.72650   1.00
O2       0.72650    0.27350    0.66180   1.00
O2       0.66180    0.27350    0.72650   1.00
O2       0.72650    0.33820    0.72650   1.00
O2       0.72650    0.16180    0.77350   1.00
O2       0.66180    0.22650    0.77350   1.00
O2       0.72650    0.22650    0.83820   1.00
O2       0.83820    0.27350    0.77350   1.00
O2       0.77350    0.33820    0.77350   1.00
O2       0.77350    0.27350    0.83820   1.00
C1       0.75000    0.25000    0.64480   1.00
C1       0.75000    0.14480    0.75000   1.00
C1       0.85520    0.25000    0.75000   1.00
C1       0.64480    0.25000    0.75000   1.00
C1       0.75000    0.35520    0.75000   1.00
C1       0.75000    0.25000    0.85520   1.00
O1       0.25000    0.75000    0.75000   1.00
Zn1      0.28280    0.71720    0.71720   1.00
Zn1      0.21720    0.78280    0.71720   1.00
Zn1      0.21720    0.71720    0.78280   1.00
Zn1      0.28280    0.78280    0.78280   1.00
O2       0.27350    0.72650    0.66180   1.00
O2       0.27350    0.66180    0.72650   1.00
O2       0.33820    0.72650    0.72650   1.00
O2       0.22650    0.77350    0.66180   1.00
O2       0.16180    0.77350    0.72650   1.00
O2       0.22650    0.83820    0.72650   1.00
O2       0.22650    0.66180    0.77350   1.00
O2       0.16180    0.72650    0.77350   1.00
O2       0.22650    0.72650    0.83820   1.00
O2       0.33820    0.77350    0.77350   1.00
O2       0.27350    0.83820    0.77350   1.00
O2       0.27350    0.77350    0.83820   1.00
C1       0.25000    0.75000    0.64480   1.00
C1       0.25000    0.64480    0.75000   1.00
C1       0.35520    0.75000    0.75000   1.00
C1       0.14480    0.75000    0.75000   1.00
C1       0.25000    0.85520    0.75000   1.00
C1       0.25000    0.75000    0.85520   1.00
O1       1.00000    1.00000    1.00000   1.00
Zn1      0.96720    1.03280    1.03280   1.00
Zn1      1.03280    0.96720    1.03280   1.00
Zn1      1.03280    1.03280    0.96720   1.00
Zn1      0.96720    0.96720    0.96720   1.00
O2       0.97650    1.02350    1.08820   1.00
O2       0.97650    1.08820    1.02350   1.00
O2       0.91180    1.02350    1.02350   1.00
O2       1.02350    0.97650    1.08820   1.00
O2       1.08820    0.97650    1.02350   1.00
O2       1.02350    0.91180    1.02350   1.00
O2       1.02350    1.08820    0.97650   1.00
O2       1.08820    1.02350    0.97650   1.00
O2       1.02350    1.02350    0.91180   1.00
O2       0.91180    0.97650    0.97650   1.00
O2       0.97650    0.91180    0.97650   1.00
O2       0.97650    0.97650    0.91180   1.00
C1       1.00000    1.00000    1.10520   1.00
C1       1.00000    1.10520    1.00000   1.00
C1       0.89480    1.00000    1.00000   1.00
C1       1.10520    1.00000    1.00000   1.00
C1       1.00000    0.89480    1.00000   1.00
C1       1.00000    1.00000    0.89480   1.00
O1       0.50000    0.50000    1.00000   1.00
Zn1      0.46720    0.53280    1.03280   1.00
Zn1      0.53280    0.46720    1.03280   1.00
Zn1      0.53280    0.53280    0.96720   1.00
Zn1      0.46720    0.46720    0.96720   1.00
O2       0.47650    0.52350    1.08820   1.00
O2       0.47650    0.58820    1.02350   1.00
O2       0.41180    0.52350    1.02350   1.00
O2       0.52350    0.47650    1.08820   1.00
O2       0.58820    0.47650    1.02350   1.00
O2       0.52350    0.41180    1.02350   1.00
O2       0.52350    0.58820    0.97650   1.00
O2       0.58820    0.52350    0.97650   1.00
O2       0.52350    0.52350    0.91180   1.00
O2       0.41180    0.47650    0.97650   1.00
O2       0.47650    0.41180    0.97650   1.00
O2       0.47650    0.47650    0.91180   1.00
C1       0.50000    0.50000    1.10520   1.00
C1       0.50000    0.60520    1.00000   1.00
C1       0.39480    0.50000    1.00000   1.00
C1       0.60520    0.50000    1.00000   1.00
C1       0.50000    0.39480    1.00000   1.00
C1       0.50000    0.50000    0.89480   1.00
O1       0.50000    1.00000    0.50000   1.00
Zn1      0.46720    1.03280    0.53280   1.00
Zn1      0.53280    0.96720    0.53280   1.00
Zn1      0.53280    1.03280    0.46720   1.00
Zn1      0.46720    0.96720    0.46720   1.00
O2       0.47650    1.02350    0.58820   1.00
O2       0.47650    1.08820    0.52350   1.00
O2       0.41180    1.02350    0.52350   1.00
O2       0.52350    0.97650    0.58820   1.00
O2       0.58820    0.97650    0.52350   1.00
O2       0.52350    0.91180    0.52350   1.00
O2       0.52350    1.08820    0.47650   1.00
O2       0.58820    1.02350    0.47650   1.00
O2       0.52350    1.02350    0.41180   1.00
O2       0.41180    0.97650    0.47650   1.00
O2       0.47650    0.91180    0.47650   1.00
O2       0.47650    0.97650    0.41180   1.00
C1       0.50000    1.00000    0.60520   1.00
C1       0.50000    1.10520    0.50000   1.00
C1       0.39480    1.00000    0.50000   1.00
C1       0.60520    1.00000    0.50000   1.00
C1       0.50000    0.89480    0.50000   1.00
C1       0.50000    1.00000    0.39480   1.00
O1       1.00000    0.50000    0.50000   1.00
Zn1      0.96720    0.53280    0.53280   1.00
Zn1      1.03280    0.46720    0.53280   1.00
Zn1      1.03280    0.53280    0.46720   1.00
Zn1      0.96720    0.46720    0.46720   1.00
O2       0.97650    0.52350    0.58820   1.00
O2       0.97650    0.58820    0.52350   1.00
O2       0.91180    0.52350    0.52350   1.00
O2       1.02350    0.47650    0.58820   1.00
O2       1.08820    0.47650    0.52350   1.00
O2       1.02350    0.41180    0.52350   1.00
O2       1.02350    0.58820    0.47650   1.00
O2       1.08820    0.52350    0.47650   1.00
O2       1.02350    0.52350    0.41180   1.00
O2       0.91180    0.47650    0.47650   1.00
O2       0.97650    0.41180    0.47650   1.00
O2       0.97650    0.47650    0.41180   1.00
C1       1.00000    0.50000    0.60520   1.00
C1       1.00000    0.60520    0.50000   1.00
C1       0.89480    0.50000    0.50000   1.00
C1       1.10520    0.50000    0.50000   1.00
C1       1.00000    0.39480    0.50000   1.00
C1       1.00000    0.50000    0.39480   1.00
O1       0.50000    0.50000    0.50000   1.00
Zn1      0.53280    0.46720    0.46720   1.00
Zn1      0.46720    0.53280    0.46720   1.00
Zn1      0.46720    0.46720    0.53280   1.00
Zn1      0.53280    0.53280    0.53280   1.00
O2       0.52350    0.47650    0.41180   1.00
O2       0.52350    0.41180    0.47650   1.00
O2       0.58820    0.47650    0.47650   1.00
O2       0.47650    0.52350    0.41180   1.00
O2       0.41180    0.52350    0.47650   1.00
O2       0.47650    0.58820    0.47650   1.00
O2       0.47650    0.41180    0.52350   1.00
O2       0.41180    0.47650    0.52350   1.00
O2       0.47650    0.47650    0.58820   1.00
O2       0.58820    0.52350    0.52350   1.00
O2       0.52350    0.58820    0.52350   1.00
O2       0.52350    0.52350    0.58820   1.00
C1       0.50000    0.50000    0.39480   1.00
C1       0.50000    0.39480    0.50000   1.00
C1       0.60520    0.50000    0.50000   1.00
C1       0.39480    0.50000    0.50000   1.00
C1       0.50000    0.60520    0.50000   1.00
C1       0.50000    0.50000    0.60520   1.00
O1       1.00000    1.00000    0.50000   1.00
Zn1      1.03280    0.96720    0.46720   1.00
Zn1      0.96720    1.03280    0.46720   1.00
Zn1      0.96720    0.96720    0.53280   1.00
Zn1      1.03280    1.03280    0.53280   1.00
O2       1.02350    0.97650    0.41180   1.00
O2       1.02350    0.91180    0.47650   1.00
O2       1.08820    0.97650    0.47650   1.00
O2       0.97650    1.02350    0.41180   1.00
O2       0.91180    1.02350    0.47650   1.00
O2       0.97650    1.08820    0.47650   1.00
O2       0.97650    0.91180    0.52350   1.00
O2       0.91180    0.97650    0.52350   1.00
O2       0.97650    0.97650    0.58820   1.00
O2       1.08820    1.02350    0.52350   1.00
O2       1.02350    1.08820    0.52350   1.00
O2       1.02350    1.02350    0.58820   1.00
C1       1.00000    1.00000    0.39480   1.00
C1       1.00000    0.89480    0.50000   1.00
C1       1.10520    1.00000    0.50000   1.00
C1       0.89480    1.00000    0.50000   1.00
C1       1.00000    1.10520    0.50000   1.00
C1       1.00000    1.00000    0.60520   1.00
O1       1.00000    0.50000    1.00000   1.00
Zn1      1.03280    0.46720    0.96720   1.00
Zn1      0.96720    0.53280    0.96720   1.00
Zn1      0.96720    0.46720    1.03280   1.00
Zn1      1.03280    0.53280    1.03280   1.00
O2       1.02350    0.47650    0.91180   1.00
O2       1.02350    0.41180    0.97650   1.00
O2       1.08820    0.47650    0.97650   1.00
O2       0.97650    0.52350    0.91180   1.00
O2       0.91180    0.52350    0.97650   1.00
O2       0.97650    0.58820    0.97650   1.00
O2       0.97650    0.41180    1.02350   1.00
O2       0.91180    0.47650    1.02350   1.00
O2       0.97650    0.47650    1.08820   1.00
O2       1.08820    0.52350    1.02350   1.00
O2       1.02350    0.58820    1.02350   1.00
O2       1.02350    0.52350    1.08820   1.00
C1       1.00000    0.50000    0.89480   1.00
C1       1.00000    0.39480    1.00000   1.00
C1       1.10520    0.50000    1.00000   1.00
C1       0.89480    0.50000    1.00000   1.00
C1       1.00000    0.60520    1.00000   1.00
C1       1.00000    0.50000    1.10520   1.00
O1       0.50000    1.00000    1.00000   1.00
Zn1      0.53280    0.96720    0.96720   1.00
Zn1      0.46720    1.03280    0.96720   1.00
Zn1      0.46720    0.96720    1.03280   1.00
Zn1      0.53280    1.03280    1.03280   1.00
O2       0.52350    0.97650    0.91180   1.00
O2       0.52350    0.91180    0.97650   1.00
O2       0.58820    0.97650    0.97650   1.00
O2       0.47650    1.02350    0.91180   1.00
O2       0.41180    1.02350    0.97650   1.00
O2       0.47650    1.08820    0.97650   1.00
O2       0.47650    0.91180    1.02350   1.00
O2       0.41180    0.97650    1.02350   1.00
O2       0.47650    0.97650    1.08820   1.00
O2       0.58820    1.02350    1.02350   1.00
O2       0.52350    1.08820    1.02350   1.00
O2       0.52350    1.02350    1.08820   1.00
C1       0.50000    1.00000    0.89480   1.00
C1       0.50000    0.89480    1.00000   1.00
C1       0.60520    1.00000    1.00000   1.00
C1       0.39480    1.00000    1.00000   1.00
C1       0.50000    1.10520    1.00000   1.00
C1       0.50000    1.00000    1.10520   1.00
C4       0.75241    0.75186    1.02084   1.00
C4       0.75233    0.75113    0.97912   1.00
C3       0.78686    0.75499    1.04364   1.00
C3       0.78681    0.74989    0.95616   1.00
C3       0.71623    0.74869    1.04123   1.00
C3       0.71594    0.75178    0.95886   1.00
C2       0.75028    0.75116    1.10512   1.00
C2       0.74972    0.74884    0.89488   1.00
C3       0.78588    0.75444    1.08462   1.00
C3       0.78557    0.74914    0.91519   1.00
C3       0.71579    0.74892    1.08258   1.00
C3       0.71530    0.74932    0.91762   1.00
H1       0.81367    0.75791    1.03115   1.00
H1       0.81383    0.74924    0.96852   1.00
C5       0.68070    0.74548    1.02020   1.00
C5       0.68038    0.75452    0.97980   1.00
H1       0.81176    0.75652    1.09955   1.00
H1       0.81145    0.74859    0.90010   1.00
H1       0.68953    0.74772    1.09680   1.00
H1       0.68900    0.74730    0.90368   1.00
O3       0.64681    0.73594    1.03961   1.00
O3       0.64571    0.76294    0.96099   1.00
Si1      0.63315    0.69037    1.04247   1.00
Si1      0.63447    0.80848    0.95279   1.00
C6       0.59416    0.69745    1.07538   1.00
C6       0.61605    0.67648    0.99598   1.00
C6       0.66922    0.65952    1.06253   1.00
C6       0.66817    0.84489    0.96693   1.00
C6       0.62811    0.80992    0.90198   1.00
C6       0.58880    0.81707    0.97477   1.00
C6       0.60334    0.72339    1.11194   1.00
H2       0.57364    0.71447    1.05791   1.00
C6       0.57009    0.66194    1.09147   1.00
H2       0.60725    0.70446    0.98358   1.00
C6       0.64582    0.65860    0.96634   1.00
C6       0.57910    0.64976    0.99336   1.00
H2       0.67845    0.67588    1.08831   1.00
C6       0.65566    0.61858    1.07772   1.00
C6       0.70723    0.65053    1.03849   1.00
C6       0.68095    0.84648    1.01071   1.00
C6       0.70611    0.85130    0.94225   1.00
H2       0.65158    0.87165    0.96212   1.00
H2       0.65759    0.80628    0.89051   1.00
C6       0.60372    0.77582    0.88378   1.00
C6       0.61193    0.84858    0.88393   1.00
H2       0.56782    0.80553    0.95375   1.00
C6       0.58041    0.79448    1.01336   1.00
C6       0.57642    0.86039    0.98244   1.00
H2       0.61470    0.75194    1.10346   1.00
H2       0.62486    0.70944    1.13090   1.00
H2       0.57704    0.72877    1.12917   1.00
H2       0.53971    0.67053    1.09608   1.00
H2       0.57006    0.63708    1.07178   1.00
H2       0.58097    0.65174    1.11964   1.00
H2       0.63393    0.65908    0.93672   1.00
H2       0.67298    0.67502    0.96532   1.00
H2       0.65245    0.62829    0.97352   1.00
H2       0.55431    0.66265    1.00862   1.00
H2       0.56979    0.64578    0.96308   1.00
H2       0.58493    0.62086    1.00550   1.00
H2       0.63984    0.60260    1.05514   1.00
H2       0.68027    0.60049    1.08708   1.00
H2       0.63717    0.62130    1.10332   1.00
H2       0.70349    0.62560    1.01902   1.00
H2       0.71694    0.67477    1.02068   1.00
H2       0.73126    0.64344    1.05828   1.00
H2       0.70441    0.82594    1.01688   1.00
H2       0.69185    0.87555    1.01809   1.00
H2       0.65688    0.84031    1.03048   1.00
H2       0.72098    0.87808    0.95125   1.00
H2       0.72692    0.82759    0.94574   1.00
H2       0.69985    0.85460    0.91122   1.00
H2       0.60698    0.77551    0.85202   1.00
H2       0.61370    0.74744    0.89435   1.00
H2       0.57269    0.77852    0.89035   1.00
H2       0.62808    0.87404    0.89416   1.00
H2       0.61466    0.84801    0.85212   1.00
H2       0.58109    0.85265    0.89085   1.00
H2       0.60068    0.80242    1.03656   1.00
H2       0.55074    0.79965    1.02381   1.00
H2       0.58314    0.76333    1.00834   1.00
H2       0.54557    0.86211    0.99044   1.00
H2       0.59329    0.87330    1.00622   1.00
H2       0.58020    0.87850    0.95657   1.00
C4       0.75186    1.02084    0.75241   1.00
C4       0.75113    0.97912    0.75233   1.00
C3       0.75499    1.04364    0.78686   1.00
C3       0.74989    0.95616    0.78681   1.00
C3       0.74869    1.04123    0.71623   1.00
C3       0.75178    0.95886    0.71594   1.00
C2       0.75116    1.10512    0.75028   1.00
C2       0.74884    0.89488    0.74972   1.00
C3       0.75444    1.08462    0.78588   1.00
C3       0.74914    0.91519    0.78557   1.00
C3       0.74892    1.08258    0.71579   1.00
C3       0.74932    0.91762    0.71530   1.00
H1       0.75791    1.03115    0.81367   1.00
H1       0.74924    0.96852    0.81383   1.00
C5       0.74548    1.02020    0.68070   1.00
C5       0.75452    0.97980    0.68038   1.00
H1       0.75652    1.09955    0.81176   1.00
H1       0.74859    0.90010    0.81145   1.00
H1       0.74772    1.09680    0.68953   1.00
H1       0.74730    0.90368    0.68900   1.00
O3       0.73594    1.03961    0.64681   1.00
O3       0.76294    0.96099    0.64571   1.00
Si1      0.69037    1.04247    0.63315   1.00
Si1      0.80848    0.95279    0.63447   1.00
C6       0.69745    1.07538    0.59416   1.00
C6       0.67648    0.99598    0.61605   1.00
C6       0.65952    1.06253    0.66922   1.00
C6       0.84489    0.96693    0.66817   1.00
C6       0.80992    0.90198    0.62811   1.00
C6       0.81707    0.97477    0.58880   1.00
C6       0.72339    1.11194    0.60334   1.00
H2       0.71447    1.05791    0.57364   1.00
C6       0.66194    1.09147    0.57009   1.00
H2       0.70446    0.98358    0.60725   1.00
C6       0.65860    0.96634    0.64582   1.00
C6       0.64976    0.99336    0.57910   1.00
H2       0.67588    1.08831    0.67845   1.00
C6       0.61858    1.07772    0.65566   1.00
C6       0.65053    1.03849    0.70723   1.00
C6       0.84648    1.01071    0.68095   1.00
C6       0.85130    0.94225    0.70611   1.00
H2       0.87165    0.96212    0.65158   1.00
H2       0.80628    0.89051    0.65759   1.00
C6       0.77582    0.88378    0.60372   1.00
C6       0.84858    0.88393    0.61193   1.00
H2       0.80553    0.95375    0.56782   1.00
C6       0.79448    1.01336    0.58041   1.00
C6       0.86039    0.98244    0.57642   1.00
H2       0.75194    1.10346    0.61470   1.00
H2       0.70944    1.13090    0.62486   1.00
H2       0.72877    1.12917    0.57704   1.00
H2       0.67053    1.09608    0.53971   1.00
H2       0.63708    1.07178    0.57006   1.00
H2       0.65174    1.11964    0.58097   1.00
H2       0.65908    0.93672    0.63393   1.00
H2       0.67502    0.96532    0.67298   1.00
H2       0.62829    0.97352    0.65245   1.00
H2       0.66265    1.00862    0.55431   1.00
H2       0.64578    0.96308    0.56979   1.00
H2       0.62086    1.00550    0.58493   1.00
H2       0.60260    1.05514    0.63984   1.00
H2       0.60049    1.08708    0.68027   1.00
H2       0.62130    1.10332    0.63717   1.00
H2       0.62560    1.01902    0.70349   1.00
H2       0.67477    1.02068    0.71694   1.00
H2       0.64344    1.05828    0.73126   1.00
H2       0.82594    1.01688    0.70441   1.00
H2       0.87555    1.01809    0.69185   1.00
H2       0.84031    1.03048    0.65688   1.00
H2       0.87808    0.95125    0.72098   1.00
H2       0.82759    0.94574    0.72692   1.00
H2       0.85460    0.91122    0.69985   1.00
H2       0.77551    0.85202    0.60698   1.00
H2       0.74744    0.89435    0.61370   1.00
H2       0.77852    0.89035    0.57269   1.00
H2       0.87404    0.89416    0.62808   1.00
H2       0.84801    0.85212    0.61466   1.00
H2       0.85265    0.89085    0.58109   1.00
H2       0.80242    1.03656    0.60068   1.00
H2       0.79965    1.02381    0.55074   1.00
H2       0.76333    1.00834    0.58314   1.00
H2       0.86211    0.99044    0.54557   1.00
H2       0.87330    1.00622    0.59329   1.00
H2       0.87850    0.95657    0.58020   1.00
C4       0.47916    0.75241    0.74814   1.00
C4       0.52088    0.75233    0.74887   1.00
C3       0.45636    0.78686    0.74501   1.00
C3       0.54384    0.78681    0.75011   1.00
C3       0.45877    0.71623    0.75131   1.00
C3       0.54114    0.71594    0.74822   1.00
C2       0.39488    0.75028    0.74884   1.00
C2       0.60512    0.74972    0.75116   1.00
C3       0.41538    0.78588    0.74556   1.00
C3       0.58481    0.78557    0.75086   1.00
C3       0.41742    0.71579    0.75108   1.00
C3       0.58238    0.71530    0.75068   1.00
H1       0.46885    0.81367    0.74209   1.00
H1       0.53148    0.81383    0.75076   1.00
C5       0.47980    0.68070    0.75452   1.00
C5       0.52020    0.68038    0.74548   1.00
H1       0.40045    0.81176    0.74348   1.00
H1       0.59990    0.81145    0.75141   1.00
H1       0.40320    0.68953    0.75228   1.00
H1       0.59632    0.68900    0.75270   1.00
O3       0.46039    0.64681    0.76406   1.00
O3       0.53901    0.64571    0.73706   1.00
Si1      0.45753    0.63315    0.80963   1.00
Si1      0.54721    0.63447    0.69152   1.00
C6       0.42462    0.59416    0.80255   1.00
C6       0.50402    0.61605    0.82352   1.00
C6       0.43747    0.66922    0.84048   1.00
C6       0.53307    0.66817    0.65511   1.00
C6       0.59802    0.62811    0.69008   1.00
C6       0.52523    0.58880    0.68293   1.00
C6       0.38806    0.60334    0.77661   1.00
H2       0.44209    0.57364    0.78553   1.00
C6       0.40853    0.57009    0.83806   1.00
H2       0.51642    0.60725    0.79554   1.00
C6       0.53366    0.64582    0.84140   1.00
C6       0.50664    0.57910    0.85024   1.00
H2       0.41169    0.67845    0.82412   1.00
C6       0.42228    0.65566    0.88142   1.00
C6       0.46151    0.70723    0.84947   1.00
C6       0.48929    0.68095    0.65352   1.00
C6       0.55775    0.70611    0.64870   1.00
H2       0.53788    0.65158    0.62835   1.00
H2       0.60949    0.65759    0.69372   1.00
C6       0.61622    0.60372    0.72418   1.00
C6       0.61607    0.61193    0.65142   1.00
H2       0.54625    0.56782    0.69447   1.00
C6       0.48664    0.58041    0.70552   1.00
C6       0.51756    0.57642    0.63961   1.00
H2       0.39654    0.61470    0.74806   1.00
H2       0.36910    0.62486    0.79056   1.00
H2       0.37083    0.57704    0.77123   1.00
H2       0.40392    0.53971    0.82947   1.00
H2       0.42822    0.57006    0.86292   1.00
H2       0.38036    0.58097    0.84826   1.00
H2       0.56328    0.63393    0.84092   1.00
H2       0.53468    0.67298    0.82498   1.00
H2       0.52648    0.65245    0.87171   1.00
H2       0.49138    0.55431    0.83735   1.00
H2       0.53692    0.56979    0.85422   1.00
H2       0.49450    0.58493    0.87914   1.00
H2       0.44486    0.63984    0.89740   1.00
H2       0.41292    0.68027    0.89951   1.00
H2       0.39668    0.63717    0.87870   1.00
H2       0.48098    0.70349    0.87440   1.00
H2       0.47932    0.71694    0.82523   1.00
H2       0.44172    0.73126    0.85656   1.00
H2       0.48312    0.70441    0.67406   1.00
H2       0.48191    0.69185    0.62445   1.00
H2       0.46952    0.65688    0.65969   1.00
H2       0.54875    0.72098    0.62192   1.00
H2       0.55426    0.72692    0.67241   1.00
H2       0.58878    0.69985    0.64540   1.00
H2       0.64798    0.60698    0.72449   1.00
H2       0.60565    0.61370    0.75256   1.00
H2       0.60965    0.57269    0.72148   1.00
H2       0.60584    0.62808    0.62596   1.00
H2       0.64788    0.61466    0.65199   1.00
H2       0.60915    0.58109    0.64735   1.00
H2       0.46344    0.60068    0.69758   1.00
H2       0.47619    0.55074    0.70035   1.00
H2       0.49166    0.58314    0.73667   1.00
H2       0.50956    0.54557    0.63789   1.00
H2       0.49378    0.59329    0.62670   1.00
H2       0.54343    0.58020    0.62150   1.00
C4       1.02084    0.75241    0.75186   1.00
C4       0.97912    0.75233    0.75113   1.00
C3       1.04364    0.78686    0.75499   1.00
C3       0.95616    0.78681    0.74989   1.00
C3       1.04123    0.71623    0.74869   1.00
C3       0.95886    0.71594    0.75178   1.00
C2       1.10512    0.75028    0.75116   1.00
C2       0.89488    0.74972    0.74884   1.00
C3       1.08462    0.78588    0.75444   1.00
C3       0.91519    0.78557    0.74914   1.00
C3       1.08258    0.71579    0.74892   1.00
C3       0.91762    0.71530    0.74932   1.00
H1       1.03115    0.81367    0.75791   1.00
H1       0.96852    0.81383    0.74924   1.00
C5       1.02020    0.68070    0.74548   1.00
C5       0.97980    0.68038    0.75452   1.00
H1       1.09955    0.81176    0.75652   1.00
H1       0.90010    0.81145    0.74859   1.00
H1       1.09680    0.68953    0.74772   1.00
H1       0.90368    0.68900    0.74730   1.00
O3       1.03961    0.64681    0.73594   1.00
O3       0.96099    0.64571    0.76294   1.00
Si1      1.04247    0.63315    0.69037   1.00
Si1      0.95279    0.63447    0.80848   1.00
C6       1.07538    0.59416    0.69745   1.00
C6       0.99598    0.61605    0.67648   1.00
C6       1.06253    0.66922    0.65952   1.00
C6       0.96693    0.66817    0.84489   1.00
C6       0.90198    0.62811    0.80992   1.00
C6       0.97477    0.58880    0.81707   1.00
C6       1.11194    0.60334    0.72339   1.00
H2       1.05791    0.57364    0.71447   1.00
C6       1.09147    0.57009    0.66194   1.00
H2       0.98358    0.60725    0.70446   1.00
C6       0.96634    0.64582    0.65860   1.00
C6       0.99336    0.57910    0.64976   1.00
H2       1.08831    0.67845    0.67588   1.00
C6       1.07772    0.65566    0.61858   1.00
C6       1.03849    0.70723    0.65053   1.00
C6       1.01071    0.68095    0.84648   1.00
C6       0.94225    0.70611    0.85130   1.00
H2       0.96212    0.65158    0.87165   1.00
H2       0.89051    0.65759    0.80628   1.00
C6       0.88378    0.60372    0.77582   1.00
C6       0.88393    0.61193    0.84858   1.00
H2       0.95375    0.56782    0.80553   1.00
C6       1.01336    0.58041    0.79448   1.00
C6       0.98244    0.57642    0.86039   1.00
H2       1.10346    0.61470    0.75194   1.00
H2       1.13090    0.62486    0.70944   1.00
H2       1.12917    0.57704    0.72877   1.00
H2       1.09608    0.53971    0.67053   1.00
H2       1.07178    0.57006    0.63708   1.00
H2       1.11964    0.58097    0.65174   1.00
H2       0.93672    0.63393    0.65908   1.00
H2       0.96532    0.67298    0.67502   1.00
H2       0.97352    0.65245    0.62829   1.00
H2       1.00862    0.55431    0.66265   1.00
H2       0.96308    0.56979    0.64578   1.00
H2       1.00550    0.58493    0.62086   1.00
H2       1.05514    0.63984    0.60260   1.00
H2       1.08708    0.68027    0.60049   1.00
H2       1.10332    0.63717    0.62130   1.00
H2       1.01902    0.70349    0.62560   1.00
H2       1.02068    0.71694    0.67477   1.00
H2       1.05828    0.73126    0.64344   1.00
H2       1.01688    0.70441    0.82594   1.00
H2       1.01809    0.69185    0.87555   1.00
H2       1.03048    0.65688    0.84031   1.00
H2       0.95125    0.72098    0.87808   1.00
H2       0.94574    0.72692    0.82759   1.00
H2       0.91122    0.69985    0.85460   1.00
H2       0.85202    0.60698    0.77551   1.00
H2       0.89435    0.61370    0.74744   1.00
H2       0.89035    0.57269    0.77852   1.00
H2       0.89416    0.62808    0.87404   1.00
H2       0.85212    0.61466    0.84801   1.00
H2       0.89085    0.58109    0.85265   1.00
H2       1.03656    0.60068    0.80242   1.00
H2       1.02381    0.55074    0.79965   1.00
H2       1.00834    0.58314    0.76333   1.00
H2       0.99044    0.54557    0.86211   1.00
H2       1.00622    0.59329    0.87330   1.00
H2       0.95657    0.58020    0.87850   1.00
C4       0.74814    0.47916    0.75241   1.00
C4       0.74887    0.52088    0.75233   1.00
C3       0.74501    0.45636    0.78686   1.00
C3       0.75011    0.54384    0.78681   1.00
C3       0.75131    0.45877    0.71623   1.00
C3       0.74822    0.54114    0.71594   1.00
C2       0.74884    0.39488    0.75028   1.00
C2       0.75116    0.60512    0.74972   1.00
C3       0.74556    0.41538    0.78588   1.00
C3       0.75086    0.58481    0.78557   1.00
C3       0.75108    0.41742    0.71579   1.00
C3       0.75068    0.58238    0.71530   1.00
H1       0.74209    0.46885    0.81367   1.00
H1       0.75076    0.53148    0.81383   1.00
C5       0.75452    0.47980    0.68070   1.00
C5       0.74548    0.52020    0.68038   1.00
H1       0.74348    0.40045    0.81176   1.00
H1       0.75141    0.59990    0.81145   1.00
H1       0.75228    0.40320    0.68953   1.00
H1       0.75270    0.59632    0.68900   1.00
O3       0.76406    0.46039    0.64681   1.00
O3       0.73706    0.53901    0.64571   1.00
Si1      0.80963    0.45753    0.63315   1.00
Si1      0.69152    0.54721    0.63447   1.00
C6       0.80255    0.42462    0.59416   1.00
C6       0.82352    0.50402    0.61605   1.00
C6       0.84048    0.43747    0.66922   1.00
C6       0.65511    0.53307    0.66817   1.00
C6       0.69008    0.59802    0.62811   1.00
C6       0.68293    0.52523    0.58880   1.00
C6       0.77661    0.38806    0.60334   1.00
H2       0.78553    0.44209    0.57364   1.00
C6       0.83806    0.40853    0.57009   1.00
H2       0.79554    0.51642    0.60725   1.00
C6       0.84140    0.53366    0.64582   1.00
C6       0.85024    0.50664    0.57910   1.00
H2       0.82412    0.41169    0.67845   1.00
C6       0.88142    0.42228    0.65566   1.00
C6       0.84947    0.46151    0.70723   1.00
C6       0.65352    0.48929    0.68095   1.00
C6       0.64870    0.55775    0.70611   1.00
H2       0.62835    0.53788    0.65158   1.00
H2       0.69372    0.60949    0.65759   1.00
C6       0.72418    0.61622    0.60372   1.00
C6       0.65142    0.61607    0.61193   1.00
H2       0.69447    0.54625    0.56782   1.00
C6       0.70552    0.48664    0.58041   1.00
C6       0.63961    0.51756    0.57642   1.00
H2       0.74806    0.39654    0.61470   1.00
H2       0.79056    0.36910    0.62486   1.00
H2       0.77123    0.37083    0.57704   1.00
H2       0.82947    0.40392    0.53971   1.00
H2       0.86292    0.42822    0.57006   1.00
H2       0.84826    0.38036    0.58097   1.00
H2       0.84092    0.56328    0.63393   1.00
H2       0.82498    0.53468    0.67298   1.00
H2       0.87171    0.52648    0.65245   1.00
H2       0.83735    0.49138    0.55431   1.00
H2       0.85422    0.53692    0.56979   1.00
H2       0.87914    0.49450    0.58493   1.00
H2       0.89740    0.44486    0.63984   1.00
H2       0.89951    0.41292    0.68027   1.00
H2       0.87870    0.39668    0.63717   1.00
H2       0.87440    0.48098    0.70349   1.00
H2       0.82523    0.47932    0.71694   1.00
H2       0.85656    0.44172    0.73126   1.00
H2       0.67406    0.48312    0.70441   1.00
H2       0.62445    0.48191    0.69185   1.00
H2       0.65969    0.46952    0.65688   1.00
H2       0.62192    0.54875    0.72098   1.00
H2       0.67241    0.55426    0.72692   1.00
H2       0.64540    0.58878    0.69985   1.00
H2       0.72449    0.64798    0.60698   1.00
H2       0.75256    0.60565    0.61370   1.00
H2       0.72148    0.60965    0.57269   1.00
H2       0.62596    0.60584    0.62808   1.00
H2       0.65199    0.64788    0.61466   1.00
H2       0.64735    0.60915    0.58109   1.00
H2       0.69758    0.46344    0.60068   1.00
H2       0.70035    0.47619    0.55074   1.00
H2       0.73667    0.49166    0.58314   1.00
H2       0.63789    0.50956    0.54557   1.00
H2       0.62670    0.49378    0.59329   1.00
H2       0.62150    0.54343    0.58020   1.00
C4       0.75241    0.74814    0.47916   1.00
C4       0.75233    0.74887    0.52088   1.00
C3       0.78686    0.74501    0.45636   1.00
C3       0.78681    0.75011    0.54384   1.00
C3       0.71623    0.75131    0.45877   1.00
C3       0.71594    0.74822    0.54114   1.00
C2       0.75028    0.74884    0.39488   1.00
C2       0.74972    0.75116    0.60512   1.00
C3       0.78588    0.74556    0.41538   1.00
C3       0.78557    0.75086    0.58481   1.00
C3       0.71579    0.75108    0.41742   1.00
C3       0.71530    0.75068    0.58238   1.00
H1       0.81367    0.74209    0.46885   1.00
H1       0.81383    0.75076    0.53148   1.00
C5       0.68070    0.75452    0.47980   1.00
C5       0.68038    0.74548    0.52020   1.00
H1       0.81176    0.74348    0.40045   1.00
H1       0.81145    0.75141    0.59990   1.00
H1       0.68953    0.75228    0.40320   1.00
H1       0.68900    0.75270    0.59632   1.00
O3       0.64681    0.76406    0.46039   1.00
O3       0.64571    0.73706    0.53901   1.00
Si1      0.63315    0.80963    0.45753   1.00
Si1      0.63447    0.69152    0.54721   1.00
C6       0.59416    0.80255    0.42462   1.00
C6       0.61605    0.82352    0.50402   1.00
C6       0.66922    0.84048    0.43747   1.00
C6       0.66817    0.65511    0.53307   1.00
C6       0.62811    0.69008    0.59802   1.00
C6       0.58880    0.68293    0.52523   1.00
C6       0.60334    0.77661    0.38806   1.00
H2       0.57364    0.78553    0.44209   1.00
C6       0.57009    0.83806    0.40853   1.00
H2       0.60725    0.79554    0.51642   1.00
C6       0.64582    0.84140    0.53366   1.00
C6       0.57910    0.85024    0.50664   1.00
H2       0.67845    0.82412    0.41169   1.00
C6       0.65566    0.88142    0.42228   1.00
C6       0.70723    0.84947    0.46151   1.00
C6       0.68095    0.65352    0.48929   1.00
C6       0.70611    0.64870    0.55775   1.00
H2       0.65158    0.62835    0.53788   1.00
H2       0.65759    0.69372    0.60949   1.00
C6       0.60372    0.72418    0.61622   1.00
C6       0.61193    0.65142    0.61607   1.00
H2       0.56782    0.69447    0.54625   1.00
C6       0.58041    0.70552    0.48664   1.00
C6       0.57642    0.63961    0.51756   1.00
H2       0.61470    0.74806    0.39654   1.00
H2       0.62486    0.79056    0.36910   1.00
H2       0.57704    0.77123    0.37083   1.00
H2       0.53971    0.82947    0.40392   1.00
H2       0.57006    0.86292    0.42822   1.00
H2       0.58097    0.84826    0.38036   1.00
H2       0.63393    0.84092    0.56328   1.00
H2       0.67298    0.82498    0.53468   1.00
H2       0.65245    0.87171    0.52648   1.00
H2       0.55431    0.83735    0.49138   1.00
H2       0.56979    0.85422    0.53692   1.00
H2       0.58493    0.87914    0.49450   1.00
H2       0.63984    0.89740    0.44486   1.00
H2       0.68027    0.89951    0.41292   1.00
H2       0.63717    0.87870    0.39668   1.00
H2       0.70349    0.87440    0.48098   1.00
H2       0.71694    0.82523    0.47932   1.00
H2       0.73126    0.85656    0.44172   1.00
H2       0.70441    0.67406    0.48312   1.00
H2       0.69185    0.62445    0.48191   1.00
H2       0.65688    0.65969    0.46952   1.00
H2       0.72098    0.62192    0.54875   1.00
H2       0.72692    0.67241    0.55426   1.00
H2       0.69985    0.64540    0.58878   1.00
H2       0.60698    0.72449    0.64798   1.00
H2       0.61370    0.75256    0.60565   1.00
H2       0.57269    0.72148    0.60965   1.00
H2       0.62808    0.62596    0.60584   1.00
H2       0.61466    0.65199    0.64788   1.00
H2       0.58109    0.64735    0.60915   1.00
H2       0.60068    0.69758    0.46344   1.00
H2       0.55074    0.70035    0.47619   1.00
H2       0.58314    0.73667    0.49166   1.00
H2       0.54557    0.63789    0.50956   1.00
H2       0.59329    0.62670    0.49378   1.00
H2       0.58020    0.62150    0.54343   1.00
C4       0.25241    0.25186    1.02084   1.00
C4       0.25233    0.25113    0.97912   1.00
C3       0.28686    0.25499    1.04364   1.00
C3       0.28681    0.24989    0.95616   1.00
C3       0.21623    0.24869    1.04123   1.00
C3       0.21594    0.25178    0.95886   1.00
C2       0.25028    0.25116    1.10512   1.00
C2       0.24972    0.24884    0.89488   1.00
C3       0.28588    0.25444    1.08462   1.00
C3       0.28557    0.24914    0.91519   1.00
C3       0.21579    0.24892    1.08258   1.00
C3       0.21530    0.24932    0.91762   1.00
H1       0.31367    0.25791    1.03115   1.00
H1       0.31383    0.24924    0.96852   1.00
C5       0.18070    0.24548    1.02020   1.00
C5       0.18038    0.25452    0.97980   1.00
H1       0.31176    0.25652    1.09955   1.00
H1       0.31145    0.24859    0.90010   1.00
H1       0.18953    0.24772    1.09680   1.00
H1       0.18900    0.24730    0.90368   1.00
O3       0.14681    0.23594    1.03961   1.00
O3       0.14571    0.26294    0.96099   1.00
Si1      0.13315    0.19037    1.04247   1.00
Si1      0.13447    0.30848    0.95279   1.00
C6       0.09416    0.19745    1.07538   1.00
C6       0.11605    0.17648    0.99598   1.00
C6       0.16922    0.15952    1.06253   1.00
C6       0.16817    0.34489    0.96693   1.00
C6       0.12811    0.30992    0.90198   1.00
C6       0.08880    0.31707    0.97477   1.00
C6       0.10334    0.22339    1.11194   1.00
H2       0.07364    0.21447    1.05791   1.00
C6       0.07009    0.16194    1.09147   1.00
H2       0.10725    0.20446    0.98358   1.00
C6       0.14582    0.15860    0.96634   1.00
C6       0.07910    0.14976    0.99336   1.00
H2       0.17845    0.17588    1.08831   1.00
C6       0.15566    0.11858    1.07772   1.00
C6       0.20723    0.15053    1.03849   1.00
C6       0.18095    0.34648    1.01071   1.00
C6       0.20611    0.35130    0.94225   1.00
H2       0.15158    0.37165    0.96212   1.00
H2       0.15759    0.30628    0.89051   1.00
C6       0.10372    0.27582    0.88378   1.00
C6       0.11193    0.34858    0.88393   1.00
H2       0.06782    0.30553    0.95375   1.00
C6       0.08041    0.29448    1.01336   1.00
C6       0.07642    0.36039    0.98244   1.00
H2       0.11470    0.25194    1.10346   1.00
H2       0.12486    0.20944    1.13090   1.00
H2       0.07704    0.22877    1.12917   1.00
H2       0.03971    0.17053    1.09608   1.00
H2       0.07006    0.13708    1.07178   1.00
H2       0.08097    0.15174    1.11964   1.00
H2       0.13393    0.15908    0.93672   1.00
H2       0.17298    0.17502    0.96532   1.00
H2       0.15245    0.12829    0.97352   1.00
H2       0.05431    0.16265    1.00862   1.00
H2       0.06979    0.14578    0.96308   1.00
H2       0.08493    0.12086    1.00550   1.00
H2       0.13984    0.10260    1.05514   1.00
H2       0.18027    0.10049    1.08708   1.00
H2       0.13717    0.12130    1.10332   1.00
H2       0.20349    0.12560    1.01902   1.00
H2       0.21694    0.17477    1.02068   1.00
H2       0.23126    0.14344    1.05828   1.00
H2       0.20441    0.32594    1.01688   1.00
H2       0.19185    0.37555    1.01809   1.00
H2       0.15688    0.34031    1.03048   1.00
H2       0.22098    0.37808    0.95125   1.00
H2       0.22692    0.32759    0.94574   1.00
H2       0.19985    0.35460    0.91122   1.00
H2       0.10698    0.27551    0.85202   1.00
H2       0.11370    0.24744    0.89435   1.00
H2       0.07269    0.27852    0.89035   1.00
H2       0.12808    0.37404    0.89416   1.00
H2       0.11466    0.34801    0.85212   1.00
H2       0.08109    0.35265    0.89085   1.00
H2       0.10068    0.30242    1.03656   1.00
H2       0.05074    0.29965    1.02381   1.00
H2       0.08314    0.26333    1.00834   1.00
H2       0.04557    0.36211    0.99044   1.00
H2       0.09329    0.37330    1.00622   1.00
H2       0.08020    0.37850    0.95657   1.00
C4       0.25186    0.52084    0.75241   1.00
C4       0.25113    0.47912    0.75233   1.00
C3       0.25499    0.54364    0.78686   1.00
C3       0.24989    0.45616    0.78681   1.00
C3       0.24869    0.54123    0.71623   1.00
C3       0.25178    0.45886    0.71594   1.00
C2       0.25116    0.60512    0.75028   1.00
C2       0.24884    0.39488    0.74972   1.00
C3       0.25444    0.58462    0.78588   1.00
C3       0.24914    0.41519    0.78557   1.00
C3       0.24892    0.58258    0.71579   1.00
C3       0.24932    0.41762    0.71530   1.00
H1       0.25791    0.53115    0.81367   1.00
H1       0.24924    0.46852    0.81383   1.00
C5       0.24548    0.52020    0.68070   1.00
C5       0.25452    0.47980    0.68038   1.00
H1       0.25652    0.59955    0.81176   1.00
H1       0.24859    0.40010    0.81145   1.00
H1       0.24772    0.59680    0.68953   1.00
H1       0.24730    0.40368    0.68900   1.00
O3       0.23594    0.53961    0.64681   1.00
O3       0.26294    0.46099    0.64571   1.00
Si1      0.19037    0.54247    0.63315   1.00
Si1      0.30848    0.45279    0.63447   1.00
C6       0.19745    0.57538    0.59416   1.00
C6       0.17648    0.49598    0.61605   1.00
C6       0.15952    0.56253    0.66922   1.00
C6       0.34489    0.46693    0.66817   1.00
C6       0.30992    0.40198    0.62811   1.00
C6       0.31707    0.47477    0.58880   1.00
C6       0.22339    0.61194    0.60334   1.00
H2       0.21447    0.55791    0.57364   1.00
C6       0.16194    0.59147    0.57009   1.00
H2       0.20446    0.48358    0.60725   1.00
C6       0.15860    0.46634    0.64582   1.00
C6       0.14976    0.49336    0.57910   1.00
H2       0.17588    0.58831    0.67845   1.00
C6       0.11858    0.57772    0.65566   1.00
C6       0.15053    0.53849    0.70723   1.00
C6       0.34648    0.51071    0.68095   1.00
C6       0.35130    0.44225    0.70611   1.00
H2       0.37165    0.46212    0.65158   1.00
H2       0.30628    0.39051    0.65759   1.00
C6       0.27582    0.38378    0.60372   1.00
C6       0.34858    0.38393    0.61193   1.00
H2       0.30553    0.45375    0.56782   1.00
C6       0.29448    0.51336    0.58041   1.00
C6       0.36039    0.48244    0.57642   1.00
H2       0.25194    0.60346    0.61470   1.00
H2       0.20944    0.63090    0.62486   1.00
H2       0.22877    0.62917    0.57704   1.00
H2       0.17053    0.59608    0.53971   1.00
H2       0.13708    0.57178    0.57006   1.00
H2       0.15174    0.61964    0.58097   1.00
H2       0.15908    0.43672    0.63393   1.00
H2       0.17502    0.46532    0.67298   1.00
H2       0.12829    0.47352    0.65245   1.00
H2       0.16265    0.50862    0.55431   1.00
H2       0.14578    0.46308    0.56979   1.00
H2       0.12086    0.50550    0.58493   1.00
H2       0.10260    0.55514    0.63984   1.00
H2       0.10049    0.58708    0.68027   1.00
H2       0.12130    0.60332    0.63717   1.00
H2       0.12560    0.51902    0.70349   1.00
H2       0.17477    0.52068    0.71694   1.00
H2       0.14344    0.55828    0.73126   1.00
H2       0.32594    0.51688    0.70441   1.00
H2       0.37555    0.51809    0.69185   1.00
H2       0.34031    0.53048    0.65688   1.00
H2       0.37808    0.45125    0.72098   1.00
H2       0.32759    0.44574    0.72692   1.00
H2       0.35460    0.41122    0.69985   1.00
H2       0.27551    0.35202    0.60698   1.00
H2       0.24744    0.39435    0.61370   1.00
H2       0.27852    0.39035    0.57269   1.00
H2       0.37404    0.39416    0.62808   1.00
H2       0.34801    0.35212    0.61466   1.00
H2       0.35265    0.39085    0.58109   1.00
H2       0.30242    0.53656    0.60068   1.00
H2       0.29965    0.52381    0.55074   1.00
H2       0.26333    0.50834    0.58314   1.00
H2       0.36211    0.49044    0.54557   1.00
H2       0.37330    0.50622    0.59329   1.00
H2       0.37850    0.45657    0.58020   1.00
C4       -0.02084   0.25241    0.74814   1.00
C4       0.02088    0.25233    0.74887   1.00
C3       -0.04364   0.28686    0.74501   1.00
C3       0.04384    0.28681    0.75011   1.00
C3       -0.04123   0.21623    0.75131   1.00
C3       0.04114    0.21594    0.74822   1.00
C2       -0.10512   0.25028    0.74884   1.00
C2       0.10512    0.24972    0.75116   1.00
C3       -0.08462   0.28588    0.74556   1.00
C3       0.08481    0.28557    0.75086   1.00
C3       -0.08258   0.21579    0.75108   1.00
C3       0.08238    0.21530    0.75068   1.00
H1       -0.03115   0.31367    0.74209   1.00
H1       0.03148    0.31383    0.75076   1.00
C5       -0.02020   0.18070    0.75452   1.00
C5       0.02020    0.18038    0.74548   1.00
H1       -0.09955   0.31176    0.74348   1.00
H1       0.09990    0.31145    0.75141   1.00
H1       -0.09680   0.18953    0.75228   1.00
H1       0.09632    0.18900    0.75270   1.00
O3       -0.03961   0.14681    0.76406   1.00
O3       0.03901    0.14571    0.73706   1.00
Si1      -0.04247   0.13315    0.80963   1.00
Si1      0.04721    0.13447    0.69152   1.00
C6       -0.07538   0.09416    0.80255   1.00
C6       0.00402    0.11605    0.82352   1.00
C6       -0.06253   0.16922    0.84048   1.00
C6       0.03307    0.16817    0.65511   1.00
C6       0.09802    0.12811    0.69008   1.00
C6       0.02523    0.08880    0.68293   1.00
C6       -0.11194   0.10334    0.77661   1.00
H2       -0.05791   0.07364    0.78553   1.00
C6       -0.09147   0.07009    0.83806   1.00
H2       0.01642    0.10725    0.79554   1.00
C6       0.03366    0.14582    0.84140   1.00
C6       0.00664    0.07910    0.85024   1.00
H2       -0.08831   0.17845    0.82412   1.00
C6       -0.07772   0.15566    0.88142   1.00
C6       -0.03849   0.20723    0.84947   1.00
C6       -0.01071   0.18095    0.65352   1.00
C6       0.05775    0.20611    0.64870   1.00
H2       0.03788    0.15158    0.62835   1.00
H2       0.10949    0.15759    0.69372   1.00
C6       0.11622    0.10372    0.72418   1.00
C6       0.11607    0.11193    0.65142   1.00
H2       0.04625    0.06782    0.69447   1.00
C6       -0.01336   0.08041    0.70552   1.00
C6       0.01756    0.07642    0.63961   1.00
H2       -0.10346   0.11470    0.74806   1.00
H2       -0.13090   0.12486    0.79056   1.00
H2       -0.12917   0.07704    0.77123   1.00
H2       -0.09608   0.03971    0.82947   1.00
H2       -0.07178   0.07006    0.86292   1.00
H2       -0.11964   0.08097    0.84826   1.00
H2       0.06328    0.13393    0.84092   1.00
H2       0.03468    0.17298    0.82498   1.00
H2       0.02648    0.15245    0.87171   1.00
H2       -0.00862   0.05431    0.83735   1.00
H2       0.03692    0.06979    0.85422   1.00
H2       -0.00550   0.08493    0.87914   1.00
H2       -0.05514   0.13984    0.89740   1.00
H2       -0.08708   0.18027    0.89951   1.00
H2       -0.10332   0.13717    0.87870   1.00
H2       -0.01902   0.20349    0.87440   1.00
H2       -0.02068   0.21694    0.82523   1.00
H2       -0.05828   0.23126    0.85656   1.00
H2       -0.01688   0.20441    0.67406   1.00
H2       -0.01809   0.19185    0.62445   1.00
H2       -0.03048   0.15688    0.65969   1.00
H2       0.04875    0.22098    0.62192   1.00
H2       0.05426    0.22692    0.67241   1.00
H2       0.08878    0.19985    0.64540   1.00
H2       0.14798    0.10698    0.72449   1.00
H2       0.10565    0.11370    0.75256   1.00
H2       0.10965    0.07269    0.72148   1.00
H2       0.10584    0.12808    0.62596   1.00
H2       0.14788    0.11466    0.65199   1.00
H2       0.10915    0.08109    0.64735   1.00
H2       -0.03656   0.10068    0.69758   1.00
H2       -0.02381   0.05074    0.70035   1.00
H2       -0.00834   0.08314    0.73667   1.00
H2       0.00956    0.04557    0.63789   1.00
H2       -0.00622   0.09329    0.62670   1.00
H2       0.04343    0.08020    0.62150   1.00
C4       0.52084    0.25241    0.75186   1.00
C4       0.47912    0.25233    0.75113   1.00
C3       0.54364    0.28686    0.75499   1.00
C3       0.45616    0.28681    0.74989   1.00
C3       0.54123    0.21623    0.74869   1.00
C3       0.45886    0.21594    0.75178   1.00
C2       0.60512    0.25028    0.75116   1.00
C2       0.39488    0.24972    0.74884   1.00
C3       0.58462    0.28588    0.75444   1.00
C3       0.41519    0.28557    0.74914   1.00
C3       0.58258    0.21579    0.74892   1.00
C3       0.41762    0.21530    0.74932   1.00
H1       0.53115    0.31367    0.75791   1.00
H1       0.46852    0.31383    0.74924   1.00
C5       0.52020    0.18070    0.74548   1.00
C5       0.47980    0.18038    0.75452   1.00
H1       0.59955    0.31176    0.75652   1.00
H1       0.40010    0.31145    0.74859   1.00
H1       0.59680    0.18953    0.74772   1.00
H1       0.40368    0.18900    0.74730   1.00
O3       0.53961    0.14681    0.73594   1.00
O3       0.46099    0.14571    0.76294   1.00
Si1      0.54247    0.13315    0.69037   1.00
Si1      0.45279    0.13447    0.80848   1.00
C6       0.57538    0.09416    0.69745   1.00
C6       0.49598    0.11605    0.67648   1.00
C6       0.56253    0.16922    0.65952   1.00
C6       0.46693    0.16817    0.84489   1.00
C6       0.40198    0.12811    0.80992   1.00
C6       0.47477    0.08880    0.81707   1.00
C6       0.61194    0.10334    0.72339   1.00
H2       0.55791    0.07364    0.71447   1.00
C6       0.59147    0.07009    0.66194   1.00
H2       0.48358    0.10725    0.70446   1.00
C6       0.46634    0.14582    0.65860   1.00
C6       0.49336    0.07910    0.64976   1.00
H2       0.58831    0.17845    0.67588   1.00
C6       0.57772    0.15566    0.61858   1.00
C6       0.53849    0.20723    0.65053   1.00
C6       0.51071    0.18095    0.84648   1.00
C6       0.44225    0.20611    0.85130   1.00
H2       0.46212    0.15158    0.87165   1.00
H2       0.39051    0.15759    0.80628   1.00
C6       0.38378    0.10372    0.77582   1.00
C6       0.38393    0.11193    0.84858   1.00
H2       0.45375    0.06782    0.80553   1.00
C6       0.51336    0.08041    0.79448   1.00
C6       0.48244    0.07642    0.86039   1.00
H2       0.60346    0.11470    0.75194   1.00
H2       0.63090    0.12486    0.70944   1.00
H2       0.62917    0.07704    0.72877   1.00
H2       0.59608    0.03971    0.67053   1.00
H2       0.57178    0.07006    0.63708   1.00
H2       0.61964    0.08097    0.65174   1.00
H2       0.43672    0.13393    0.65908   1.00
H2       0.46532    0.17298    0.67502   1.00
H2       0.47352    0.15245    0.62829   1.00
H2       0.50862    0.05431    0.66265   1.00
H2       0.46308    0.06979    0.64578   1.00
H2       0.50550    0.08493    0.62086   1.00
H2       0.55514    0.13984    0.60260   1.00
H2       0.58708    0.18027    0.60049   1.00
H2       0.60332    0.13717    0.62130   1.00
H2       0.51902    0.20349    0.62560   1.00
H2       0.52068    0.21694    0.67477   1.00
H2       0.55828    0.23126    0.64344   1.00
H2       0.51688    0.20441    0.82594   1.00
H2       0.51809    0.19185    0.87555   1.00
H2       0.53048    0.15688    0.84031   1.00
H2       0.45125    0.22098    0.87808   1.00
H2       0.44574    0.22692    0.82759   1.00
H2       0.41122    0.19985    0.85460   1.00
H2       0.35202    0.10698    0.77551   1.00
H2       0.39435    0.11370    0.74744   1.00
H2       0.39035    0.07269    0.77852   1.00
H2       0.39416    0.12808    0.87404   1.00
H2       0.35212    0.11466    0.84801   1.00
H2       0.39085    0.08109    0.85265   1.00
H2       0.53656    0.10068    0.80242   1.00
H2       0.52381    0.05074    0.79965   1.00
H2       0.50834    0.08314    0.76333   1.00
H2       0.49044    0.04557    0.86211   1.00
H2       0.50622    0.09329    0.87330   1.00
H2       0.45657    0.08020    0.87850   1.00
C4       0.24814    -0.02084   0.75241   1.00
C4       0.24887    0.02088    0.75233   1.00
C3       0.24501    -0.04364   0.78686   1.00
C3       0.25011    0.04384    0.78681   1.00
C3       0.25131    -0.04123   0.71623   1.00
C3       0.24822    0.04114    0.71594   1.00
C2       0.24884    -0.10512   0.75028   1.00
C2       0.25116    0.10512    0.74972   1.00
C3       0.24556    -0.08462   0.78588   1.00
C3       0.25086    0.08481    0.78557   1.00
C3       0.25108    -0.08258   0.71579   1.00
C3       0.25068    0.08238    0.71530   1.00
H1       0.24209    -0.03115   0.81367   1.00
H1       0.25076    0.03148    0.81383   1.00
C5       0.25452    -0.02020   0.68070   1.00
C5       0.24548    0.02020    0.68038   1.00
H1       0.24348    -0.09955   0.81176   1.00
H1       0.25141    0.09990    0.81145   1.00
H1       0.25228    -0.09680   0.68953   1.00
H1       0.25270    0.09632    0.68900   1.00
O3       0.26406    -0.03961   0.64681   1.00
O3       0.23706    0.03901    0.64571   1.00
Si1      0.30963    -0.04247   0.63315   1.00
Si1      0.19152    0.04721    0.63447   1.00
C6       0.30255    -0.07538   0.59416   1.00
C6       0.32352    0.00402    0.61605   1.00
C6       0.34048    -0.06253   0.66922   1.00
C6       0.15511    0.03307    0.66817   1.00
C6       0.19008    0.09802    0.62811   1.00
C6       0.18293    0.02523    0.58880   1.00
C6       0.27661    -0.11194   0.60334   1.00
H2       0.28553    -0.05791   0.57364   1.00
C6       0.33806    -0.09147   0.57009   1.00
H2       0.29554    0.01642    0.60725   1.00
C6       0.34140    0.03366    0.64582   1.00
C6       0.35024    0.00664    0.57910   1.00
H2       0.32412    -0.08831   0.67845   1.00
C6       0.38142    -0.07772   0.65566   1.00
C6       0.34947    -0.03849   0.70723   1.00
C6       0.15352    -0.01071   0.68095   1.00
C6       0.14870    0.05775    0.70611   1.00
H2       0.12835    0.03788    0.65158   1.00
H2       0.19372    0.10949    0.65759   1.00
C6       0.22418    0.11622    0.60372   1.00
C6       0.15142    0.11607    0.61193   1.00
H2       0.19447    0.04625    0.56782   1.00
C6       0.20552    -0.01336   0.58041   1.00
C6       0.13961    0.01756    0.57642   1.00
H2       0.24806    -0.10346   0.61470   1.00
H2       0.29056    -0.13090   0.62486   1.00
H2       0.27123    -0.12917   0.57704   1.00
H2       0.32947    -0.09608   0.53971   1.00
H2       0.36292    -0.07178   0.57006   1.00
H2       0.34826    -0.11964   0.58097   1.00
H2       0.34092    0.06328    0.63393   1.00
H2       0.32498    0.03468    0.67298   1.00
H2       0.37171    0.02648    0.65245   1.00
H2       0.33735    -0.00862   0.55431   1.00
H2       0.35422    0.03692    0.56979   1.00
H2       0.37914    -0.00550   0.58493   1.00
H2       0.39740    -0.05514   0.63984   1.00
H2       0.39951    -0.08708   0.68027   1.00
H2       0.37870    -0.10332   0.63717   1.00
H2       0.37440    -0.01902   0.70349   1.00
H2       0.32523    -0.02068   0.71694   1.00
H2       0.35656    -0.05828   0.73126   1.00
H2       0.17406    -0.01688   0.70441   1.00
H2       0.12445    -0.01809   0.69185   1.00
H2       0.15969    -0.03048   0.65688   1.00
H2       0.12192    0.04875    0.72098   1.00
H2       0.17241    0.05426    0.72692   1.00
H2       0.14540    0.08878    0.69985   1.00
H2       0.22449    0.14798    0.60698   1.00
H2       0.25256    0.10565    0.61370   1.00
H2       0.22148    0.10965    0.57269   1.00
H2       0.12596    0.10584    0.62808   1.00
H2       0.15199    0.14788    0.61466   1.00
H2       0.14735    0.10915    0.58109   1.00
H2       0.19758    -0.03656   0.60068   1.00
H2       0.20035    -0.02381   0.55074   1.00
H2       0.23667    -0.00834   0.58314   1.00
H2       0.13789    0.00956    0.54557   1.00
H2       0.12670    -0.00622   0.59329   1.00
H2       0.12150    0.04343    0.58020   1.00
C4       0.25241    0.24814    0.47916   1.00
C4       0.25233    0.24887    0.52088   1.00
C3       0.28686    0.24501    0.45636   1.00
C3       0.28681    0.25011    0.54384   1.00
C3       0.21623    0.25131    0.45877   1.00
C3       0.21594    0.24822    0.54114   1.00
C2       0.25028    0.24884    0.39488   1.00
C2       0.24972    0.25116    0.60512   1.00
C3       0.28588    0.24556    0.41538   1.00
C3       0.28557    0.25086    0.58481   1.00
C3       0.21579    0.25108    0.41742   1.00
C3       0.21530    0.25068    0.58238   1.00
H1       0.31367    0.24209    0.46885   1.00
H1       0.31383    0.25076    0.53148   1.00
C5       0.18070    0.25452    0.47980   1.00
C5       0.18038    0.24548    0.52020   1.00
H1       0.31176    0.24348    0.40045   1.00
H1       0.31145    0.25141    0.59990   1.00
H1       0.18953    0.25228    0.40320   1.00
H1       0.18900    0.25270    0.59632   1.00
O3       0.14681    0.26406    0.46039   1.00
O3       0.14571    0.23706    0.53901   1.00
Si1      0.13315    0.30963    0.45753   1.00
Si1      0.13447    0.19152    0.54721   1.00
C6       0.09416    0.30255    0.42462   1.00
C6       0.11605    0.32352    0.50402   1.00
C6       0.16922    0.34048    0.43747   1.00
C6       0.16817    0.15511    0.53307   1.00
C6       0.12811    0.19008    0.59802   1.00
C6       0.08880    0.18293    0.52523   1.00
C6       0.10334    0.27661    0.38806   1.00
H2       0.07364    0.28553    0.44209   1.00
C6       0.07009    0.33806    0.40853   1.00
H2       0.10725    0.29554    0.51642   1.00
C6       0.14582    0.34140    0.53366   1.00
C6       0.07910    0.35024    0.50664   1.00
H2       0.17845    0.32412    0.41169   1.00
C6       0.15566    0.38142    0.42228   1.00
C6       0.20723    0.34947    0.46151   1.00
C6       0.18095    0.15352    0.48929   1.00
C6       0.20611    0.14870    0.55775   1.00
H2       0.15158    0.12835    0.53788   1.00
H2       0.15759    0.19372    0.60949   1.00
C6       0.10372    0.22418    0.61622   1.00
C6       0.11193    0.15142    0.61607   1.00
H2       0.06782    0.19447    0.54625   1.00
C6       0.08041    0.20552    0.48664   1.00
C6       0.07642    0.13961    0.51756   1.00
H2       0.11470    0.24806    0.39654   1.00
H2       0.12486    0.29056    0.36910   1.00
H2       0.07704    0.27123    0.37083   1.00
H2       0.03971    0.32947    0.40392   1.00
H2       0.07006    0.36292    0.42822   1.00
H2       0.08097    0.34826    0.38036   1.00
H2       0.13393    0.34092    0.56328   1.00
H2       0.17298    0.32498    0.53468   1.00
H2       0.15245    0.37171    0.52648   1.00
H2       0.05431    0.33735    0.49138   1.00
H2       0.06979    0.35422    0.53692   1.00
H2       0.08493    0.37914    0.49450   1.00
H2       0.13984    0.39740    0.44486   1.00
H2       0.18027    0.39951    0.41292   1.00
H2       0.13717    0.37870    0.39668   1.00
H2       0.20349    0.37440    0.48098   1.00
H2       0.21694    0.32523    0.47932   1.00
H2       0.23126    0.35656    0.44172   1.00
H2       0.20441    0.17406    0.48312   1.00
H2       0.19185    0.12445    0.48191   1.00
H2       0.15688    0.15969    0.46952   1.00
H2       0.22098    0.12192    0.54875   1.00
H2       0.22692    0.17241    0.55426   1.00
H2       0.19985    0.14540    0.58878   1.00
H2       0.10698    0.22449    0.64798   1.00
H2       0.11370    0.25256    0.60565   1.00
H2       0.07269    0.22148    0.60965   1.00
H2       0.12808    0.12596    0.60584   1.00
H2       0.11466    0.15199    0.64788   1.00
H2       0.08109    0.14735    0.60915   1.00
H2       0.10068    0.19758    0.46344   1.00
H2       0.05074    0.20035    0.47619   1.00
H2       0.08314    0.23667    0.49166   1.00
H2       0.04557    0.13789    0.50956   1.00
H2       0.09329    0.12670    0.49378   1.00
H2       0.08020    0.12150    0.54343   1.00
C4       0.25241    0.75186    0.52084   1.00
C4       0.25233    0.75113    0.47912   1.00
C3       0.28686    0.75499    0.54364   1.00
C3       0.28681    0.74989    0.45616   1.00
C3       0.21623    0.74869    0.54123   1.00
C3       0.21594    0.75178    0.45886   1.00
C2       0.25028    0.75116    0.60512   1.00
C2       0.24972    0.74884    0.39488   1.00
C3       0.28588    0.75444    0.58462   1.00
C3       0.28557    0.74914    0.41519   1.00
C3       0.21579    0.74892    0.58258   1.00
C3       0.21530    0.74932    0.41762   1.00
H1       0.31367    0.75791    0.53115   1.00
H1       0.31383    0.74924    0.46852   1.00
C5       0.18070    0.74548    0.52020   1.00
C5       0.18038    0.75452    0.47980   1.00
H1       0.31176    0.75652    0.59955   1.00
H1       0.31145    0.74859    0.40010   1.00
H1       0.18953    0.74772    0.59680   1.00
H1       0.18900    0.74730    0.40368   1.00
O3       0.14681    0.73594    0.53961   1.00
O3       0.14571    0.76294    0.46099   1.00
Si1      0.13315    0.69037    0.54247   1.00
Si1      0.13447    0.80848    0.45279   1.00
C6       0.09416    0.69745    0.57538   1.00
C6       0.11605    0.67648    0.49598   1.00
C6       0.16922    0.65952    0.56253   1.00
C6       0.16817    0.84489    0.46693   1.00
C6       0.12811    0.80992    0.40198   1.00
C6       0.08880    0.81707    0.47477   1.00
C6       0.10334    0.72339    0.61194   1.00
H2       0.07364    0.71447    0.55791   1.00
C6       0.07009    0.66194    0.59147   1.00
H2       0.10725    0.70446    0.48358   1.00
C6       0.14582    0.65860    0.46634   1.00
C6       0.07910    0.64976    0.49336   1.00
H2       0.17845    0.67588    0.58831   1.00
C6       0.15566    0.61858    0.57772   1.00
C6       0.20723    0.65053    0.53849   1.00
C6       0.18095    0.84648    0.51071   1.00
C6       0.20611    0.85130    0.44225   1.00
H2       0.15158    0.87165    0.46212   1.00
H2       0.15759    0.80628    0.39051   1.00
C6       0.10372    0.77582    0.38378   1.00
C6       0.11193    0.84858    0.38393   1.00
H2       0.06782    0.80553    0.45375   1.00
C6       0.08041    0.79448    0.51336   1.00
C6       0.07642    0.86039    0.48244   1.00
H2       0.11470    0.75194    0.60346   1.00
H2       0.12486    0.70944    0.63090   1.00
H2       0.07704    0.72877    0.62917   1.00
H2       0.03971    0.67053    0.59608   1.00
H2       0.07006    0.63708    0.57178   1.00
H2       0.08097    0.65174    0.61964   1.00
H2       0.13393    0.65908    0.43672   1.00
H2       0.17298    0.67502    0.46532   1.00
H2       0.15245    0.62829    0.47352   1.00
H2       0.05431    0.66265    0.50862   1.00
H2       0.06979    0.64578    0.46308   1.00
H2       0.08493    0.62086    0.50550   1.00
H2       0.13984    0.60260    0.55514   1.00
H2       0.18027    0.60049    0.58708   1.00
H2       0.13717    0.62130    0.60332   1.00
H2       0.20349    0.62560    0.51902   1.00
H2       0.21694    0.67477    0.52068   1.00
H2       0.23126    0.64344    0.55828   1.00
H2       0.20441    0.82594    0.51688   1.00
H2       0.19185    0.87555    0.51809   1.00
H2       0.15688    0.84031    0.53048   1.00
H2       0.22098    0.87808    0.45125   1.00
H2       0.22692    0.82759    0.44574   1.00
H2       0.19985    0.85460    0.41122   1.00
H2       0.10698    0.77551    0.35202   1.00
H2       0.11370    0.74744    0.39435   1.00
H2       0.07269    0.77852    0.39035   1.00
H2       0.12808    0.87404    0.39416   1.00
H2       0.11466    0.84801    0.35212   1.00
H2       0.08109    0.85265    0.39085   1.00
H2       0.10068    0.80242    0.53656   1.00
H2       0.05074    0.79965    0.52381   1.00
H2       0.08314    0.76333    0.50834   1.00
H2       0.04557    0.86211    0.49044   1.00
H2       0.09329    0.87330    0.50622   1.00
H2       0.08020    0.87850    0.45657   1.00
C4       0.25186    1.02084    0.25241   1.00
C4       0.25113    0.97912    0.25233   1.00
C3       0.25499    1.04364    0.28686   1.00
C3       0.24989    0.95616    0.28681   1.00
C3       0.24869    1.04123    0.21623   1.00
C3       0.25178    0.95886    0.21594   1.00
C2       0.25116    1.10512    0.25028   1.00
C2       0.24884    0.89488    0.24972   1.00
C3       0.25444    1.08462    0.28588   1.00
C3       0.24914    0.91519    0.28557   1.00
C3       0.24892    1.08258    0.21579   1.00
C3       0.24932    0.91762    0.21530   1.00
H1       0.25791    1.03115    0.31367   1.00
H1       0.24924    0.96852    0.31383   1.00
C5       0.24548    1.02020    0.18070   1.00
C5       0.25452    0.97980    0.18038   1.00
H1       0.25652    1.09955    0.31176   1.00
H1       0.24859    0.90010    0.31145   1.00
H1       0.24772    1.09680    0.18953   1.00
H1       0.24730    0.90368    0.18900   1.00
O3       0.23594    1.03961    0.14681   1.00
O3       0.26294    0.96099    0.14571   1.00
Si1      0.19037    1.04247    0.13315   1.00
Si1      0.30848    0.95279    0.13447   1.00
C6       0.19745    1.07538    0.09416   1.00
C6       0.17648    0.99598    0.11605   1.00
C6       0.15952    1.06253    0.16922   1.00
C6       0.34489    0.96693    0.16817   1.00
C6       0.30992    0.90198    0.12811   1.00
C6       0.31707    0.97477    0.08880   1.00
C6       0.22339    1.11194    0.10334   1.00
H2       0.21447    1.05791    0.07364   1.00
C6       0.16194    1.09147    0.07009   1.00
H2       0.20446    0.98358    0.10725   1.00
C6       0.15860    0.96634    0.14582   1.00
C6       0.14976    0.99336    0.07910   1.00
H2       0.17588    1.08831    0.17845   1.00
C6       0.11858    1.07772    0.15566   1.00
C6       0.15053    1.03849    0.20723   1.00
C6       0.34648    1.01071    0.18095   1.00
C6       0.35130    0.94225    0.20611   1.00
H2       0.37165    0.96212    0.15158   1.00
H2       0.30628    0.89051    0.15759   1.00
C6       0.27582    0.88378    0.10372   1.00
C6       0.34858    0.88393    0.11193   1.00
H2       0.30553    0.95375    0.06782   1.00
C6       0.29448    1.01336    0.08041   1.00
C6       0.36039    0.98244    0.07642   1.00
H2       0.25194    1.10346    0.11470   1.00
H2       0.20944    1.13090    0.12486   1.00
H2       0.22877    1.12917    0.07704   1.00
H2       0.17053    1.09608    0.03971   1.00
H2       0.13708    1.07178    0.07006   1.00
H2       0.15174    1.11964    0.08097   1.00
H2       0.15908    0.93672    0.13393   1.00
H2       0.17502    0.96532    0.17298   1.00
H2       0.12829    0.97352    0.15245   1.00
H2       0.16265    1.00862    0.05431   1.00
H2       0.14578    0.96308    0.06979   1.00
H2       0.12086    1.00550    0.08493   1.00
H2       0.10260    1.05514    0.13984   1.00
H2       0.10049    1.08708    0.18027   1.00
H2       0.12130    1.10332    0.13717   1.00
H2       0.12560    1.01902    0.20349   1.00
H2       0.17477    1.02068    0.21694   1.00
H2       0.14344    1.05828    0.23126   1.00
H2       0.32594    1.01688    0.20441   1.00
H2       0.37555    1.01809    0.19185   1.00
H2       0.34031    1.03048    0.15688   1.00
H2       0.37808    0.95125    0.22098   1.00
H2       0.32759    0.94574    0.22692   1.00
H2       0.35460    0.91122    0.19985   1.00
H2       0.27551    0.85202    0.10698   1.00
H2       0.24744    0.89435    0.11370   1.00
H2       0.27852    0.89035    0.07269   1.00
H2       0.37404    0.89416    0.12808   1.00
H2       0.34801    0.85212    0.11466   1.00
H2       0.35265    0.89085    0.08109   1.00
H2       0.30242    1.03656    0.10068   1.00
H2       0.29965    1.02381    0.05074   1.00
H2       0.26333    1.00834    0.08314   1.00
H2       0.36211    0.99044    0.04557   1.00
H2       0.37330    1.00622    0.09329   1.00
H2       0.37850    0.95657    0.08020   1.00
C4       -0.02084   0.75241    0.24814   1.00
C4       0.02088    0.75233    0.24887   1.00
C3       -0.04364   0.78686    0.24501   1.00
C3       0.04384    0.78681    0.25011   1.00
C3       -0.04123   0.71623    0.25131   1.00
C3       0.04114    0.71594    0.24822   1.00
C2       -0.10512   0.75028    0.24884   1.00
C2       0.10512    0.74972    0.25116   1.00
C3       -0.08462   0.78588    0.24556   1.00
C3       0.08481    0.78557    0.25086   1.00
C3       -0.08258   0.71579    0.25108   1.00
C3       0.08238    0.71530    0.25068   1.00
H1       -0.03115   0.81367    0.24209   1.00
H1       0.03148    0.81383    0.25076   1.00
C5       -0.02020   0.68070    0.25452   1.00
C5       0.02020    0.68038    0.24548   1.00
H1       -0.09955   0.81176    0.24348   1.00
H1       0.09990    0.81145    0.25141   1.00
H1       -0.09680   0.68953    0.25228   1.00
H1       0.09632    0.68900    0.25270   1.00
O3       -0.03961   0.64681    0.26406   1.00
O3       0.03901    0.64571    0.23706   1.00
Si1      -0.04247   0.63315    0.30963   1.00
Si1      0.04721    0.63447    0.19152   1.00
C6       -0.07538   0.59416    0.30255   1.00
C6       0.00402    0.61605    0.32352   1.00
C6       -0.06253   0.66922    0.34048   1.00
C6       0.03307    0.66817    0.15511   1.00
C6       0.09802    0.62811    0.19008   1.00
C6       0.02523    0.58880    0.18293   1.00
C6       -0.11194   0.60334    0.27661   1.00
H2       -0.05791   0.57364    0.28553   1.00
C6       -0.09147   0.57009    0.33806   1.00
H2       0.01642    0.60725    0.29554   1.00
C6       0.03366    0.64582    0.34140   1.00
C6       0.00664    0.57910    0.35024   1.00
H2       -0.08831   0.67845    0.32412   1.00
C6       -0.07772   0.65566    0.38142   1.00
C6       -0.03849   0.70723    0.34947   1.00
C6       -0.01071   0.68095    0.15352   1.00
C6       0.05775    0.70611    0.14870   1.00
H2       0.03788    0.65158    0.12835   1.00
H2       0.10949    0.65759    0.19372   1.00
C6       0.11622    0.60372    0.22418   1.00
C6       0.11607    0.61193    0.15142   1.00
H2       0.04625    0.56782    0.19447   1.00
C6       -0.01336   0.58041    0.20552   1.00
C6       0.01756    0.57642    0.13961   1.00
H2       -0.10346   0.61470    0.24806   1.00
H2       -0.13090   0.62486    0.29056   1.00
H2       -0.12917   0.57704    0.27123   1.00
H2       -0.09608   0.53971    0.32947   1.00
H2       -0.07178   0.57006    0.36292   1.00
H2       -0.11964   0.58097    0.34826   1.00
H2       0.06328    0.63393    0.34092   1.00
H2       0.03468    0.67298    0.32498   1.00
H2       0.02648    0.65245    0.37171   1.00
H2       -0.00862   0.55431    0.33735   1.00
H2       0.03692    0.56979    0.35422   1.00
H2       -0.00550   0.58493    0.37914   1.00
H2       -0.05514   0.63984    0.39740   1.00
H2       -0.08708   0.68027    0.39951   1.00
H2       -0.10332   0.63717    0.37870   1.00
H2       -0.01902   0.70349    0.37440   1.00
H2       -0.02068   0.71694    0.32523   1.00
H2       -0.05828   0.73126    0.35656   1.00
H2       -0.01688   0.70441    0.17406   1.00
H2       -0.01809   0.69185    0.12445   1.00
H2       -0.03048   0.65688    0.15969   1.00
H2       0.04875    0.72098    0.12192   1.00
H2       0.05426    0.72692    0.17241   1.00
H2       0.08878    0.69985    0.14540   1.00
H2       0.14798    0.60698    0.22449   1.00
H2       0.10565    0.61370    0.25256   1.00
H2       0.10965    0.57269    0.22148   1.00
H2       0.10584    0.62808    0.12596   1.00
H2       0.14788    0.61466    0.15199   1.00
H2       0.10915    0.58109    0.14735   1.00
H2       -0.03656   0.60068    0.19758   1.00
H2       -0.02381   0.55074    0.20035   1.00
H2       -0.00834   0.58314    0.23667   1.00
H2       0.00956    0.54557    0.13789   1.00
H2       -0.00622   0.59329    0.12670   1.00
H2       0.04343    0.58020    0.12150   1.00
C4       0.52084    0.75241    0.25186   1.00
C4       0.47912    0.75233    0.25113   1.00
C3       0.54364    0.78686    0.25499   1.00
C3       0.45616    0.78681    0.24989   1.00
C3       0.54123    0.71623    0.24869   1.00
C3       0.45886    0.71594    0.25178   1.00
C2       0.60512    0.75028    0.25116   1.00
C2       0.39488    0.74972    0.24884   1.00
C3       0.58462    0.78588    0.25444   1.00
C3       0.41519    0.78557    0.24914   1.00
C3       0.58258    0.71579    0.24892   1.00
C3       0.41762    0.71530    0.24932   1.00
H1       0.53115    0.81367    0.25791   1.00
H1       0.46852    0.81383    0.24924   1.00
C5       0.52020    0.68070    0.24548   1.00
C5       0.47980    0.68038    0.25452   1.00
H1       0.59955    0.81176    0.25652   1.00
H1       0.40010    0.81145    0.24859   1.00
H1       0.59680    0.68953    0.24772   1.00
H1       0.40368    0.68900    0.24730   1.00
O3       0.53961    0.64681    0.23594   1.00
O3       0.46099    0.64571    0.26294   1.00
Si1      0.54247    0.63315    0.19037   1.00
Si1      0.45279    0.63447    0.30848   1.00
C6       0.57538    0.59416    0.19745   1.00
C6       0.49598    0.61605    0.17648   1.00
C6       0.56253    0.66922    0.15952   1.00
C6       0.46693    0.66817    0.34489   1.00
C6       0.40198    0.62811    0.30992   1.00
C6       0.47477    0.58880    0.31707   1.00
C6       0.61194    0.60334    0.22339   1.00
H2       0.55791    0.57364    0.21447   1.00
C6       0.59147    0.57009    0.16194   1.00
H2       0.48358    0.60725    0.20446   1.00
C6       0.46634    0.64582    0.15860   1.00
C6       0.49336    0.57910    0.14976   1.00
H2       0.58831    0.67845    0.17588   1.00
C6       0.57772    0.65566    0.11858   1.00
C6       0.53849    0.70723    0.15053   1.00
C6       0.51071    0.68095    0.34648   1.00
C6       0.44225    0.70611    0.35130   1.00
H2       0.46212    0.65158    0.37165   1.00
H2       0.39051    0.65759    0.30628   1.00
C6       0.38378    0.60372    0.27582   1.00
C6       0.38393    0.61193    0.34858   1.00
H2       0.45375    0.56782    0.30553   1.00
C6       0.51336    0.58041    0.29448   1.00
C6       0.48244    0.57642    0.36039   1.00
H2       0.60346    0.61470    0.25194   1.00
H2       0.63090    0.62486    0.20944   1.00
H2       0.62917    0.57704    0.22877   1.00
H2       0.59608    0.53971    0.17053   1.00
H2       0.57178    0.57006    0.13708   1.00
H2       0.61964    0.58097    0.15174   1.00
H2       0.43672    0.63393    0.15908   1.00
H2       0.46532    0.67298    0.17502   1.00
H2       0.47352    0.65245    0.12829   1.00
H2       0.50862    0.55431    0.16265   1.00
H2       0.46308    0.56979    0.14578   1.00
H2       0.50550    0.58493    0.12086   1.00
H2       0.55514    0.63984    0.10260   1.00
H2       0.58708    0.68027    0.10049   1.00
H2       0.60332    0.63717    0.12130   1.00
H2       0.51902    0.70349    0.12560   1.00
H2       0.52068    0.71694    0.17477   1.00
H2       0.55828    0.73126    0.14344   1.00
H2       0.51688    0.70441    0.32594   1.00
H2       0.51809    0.69185    0.37555   1.00
H2       0.53048    0.65688    0.34031   1.00
H2       0.45125    0.72098    0.37808   1.00
H2       0.44574    0.72692    0.32759   1.00
H2       0.41122    0.69985    0.35460   1.00
H2       0.35202    0.60698    0.27551   1.00
H2       0.39435    0.61370    0.24744   1.00
H2       0.39035    0.57269    0.27852   1.00
H2       0.39416    0.62808    0.37404   1.00
H2       0.35212    0.61466    0.34801   1.00
H2       0.39085    0.58109    0.35265   1.00
H2       0.53656    0.60068    0.30242   1.00
H2       0.52381    0.55074    0.29965   1.00
H2       0.50834    0.58314    0.26333   1.00
H2       0.49044    0.54557    0.36211   1.00
H2       0.50622    0.59329    0.37330   1.00
H2       0.45657    0.58020    0.37850   1.00
C4       0.24814    0.47916    0.25241   1.00
C4       0.24887    0.52088    0.25233   1.00
C3       0.24501    0.45636    0.28686   1.00
C3       0.25011    0.54384    0.28681   1.00
C3       0.25131    0.45877    0.21623   1.00
C3       0.24822    0.54114    0.21594   1.00
C2       0.24884    0.39488    0.25028   1.00
C2       0.25116    0.60512    0.24972   1.00
C3       0.24556    0.41538    0.28588   1.00
C3       0.25086    0.58481    0.28557   1.00
C3       0.25108    0.41742    0.21579   1.00
C3       0.25068    0.58238    0.21530   1.00
H1       0.24209    0.46885    0.31367   1.00
H1       0.25076    0.53148    0.31383   1.00
C5       0.25452    0.47980    0.18070   1.00
C5       0.24548    0.52020    0.18038   1.00
H1       0.24348    0.40045    0.31176   1.00
H1       0.25141    0.59990    0.31145   1.00
H1       0.25228    0.40320    0.18953   1.00
H1       0.25270    0.59632    0.18900   1.00
O3       0.26406    0.46039    0.14681   1.00
O3       0.23706    0.53901    0.14571   1.00
Si1      0.30963    0.45753    0.13315   1.00
Si1      0.19152    0.54721    0.13447   1.00
C6       0.30255    0.42462    0.09416   1.00
C6       0.32352    0.50402    0.11605   1.00
C6       0.34048    0.43747    0.16922   1.00
C6       0.15511    0.53307    0.16817   1.00
C6       0.19008    0.59802    0.12811   1.00
C6       0.18293    0.52523    0.08880   1.00
C6       0.27661    0.38806    0.10334   1.00
H2       0.28553    0.44209    0.07364   1.00
C6       0.33806    0.40853    0.07009   1.00
H2       0.29554    0.51642    0.10725   1.00
C6       0.34140    0.53366    0.14582   1.00
C6       0.35024    0.50664    0.07910   1.00
H2       0.32412    0.41169    0.17845   1.00
C6       0.38142    0.42228    0.15566   1.00
C6       0.34947    0.46151    0.20723   1.00
C6       0.15352    0.48929    0.18095   1.00
C6       0.14870    0.55775    0.20611   1.00
H2       0.12835    0.53788    0.15158   1.00
H2       0.19372    0.60949    0.15759   1.00
C6       0.22418    0.61622    0.10372   1.00
C6       0.15142    0.61607    0.11193   1.00
H2       0.19447    0.54625    0.06782   1.00
C6       0.20552    0.48664    0.08041   1.00
C6       0.13961    0.51756    0.07642   1.00
H2       0.24806    0.39654    0.11470   1.00
H2       0.29056    0.36910    0.12486   1.00
H2       0.27123    0.37083    0.07704   1.00
H2       0.32947    0.40392    0.03971   1.00
H2       0.36292    0.42822    0.07006   1.00
H2       0.34826    0.38036    0.08097   1.00
H2       0.34092    0.56328    0.13393   1.00
H2       0.32498    0.53468    0.17298   1.00
H2       0.37171    0.52648    0.15245   1.00
H2       0.33735    0.49138    0.05431   1.00
H2       0.35422    0.53692    0.06979   1.00
H2       0.37914    0.49450    0.08493   1.00
H2       0.39740    0.44486    0.13984   1.00
H2       0.39951    0.41292    0.18027   1.00
H2       0.37870    0.39668    0.13717   1.00
H2       0.37440    0.48098    0.20349   1.00
H2       0.32523    0.47932    0.21694   1.00
H2       0.35656    0.44172    0.23126   1.00
H2       0.17406    0.48312    0.20441   1.00
H2       0.12445    0.48191    0.19185   1.00
H2       0.15969    0.46952    0.15688   1.00
H2       0.12192    0.54875    0.22098   1.00
H2       0.17241    0.55426    0.22692   1.00
H2       0.14540    0.58878    0.19985   1.00
H2       0.22449    0.64798    0.10698   1.00
H2       0.25256    0.60565    0.11370   1.00
H2       0.22148    0.60965    0.07269   1.00
H2       0.12596    0.60584    0.12808   1.00
H2       0.15199    0.64788    0.11466   1.00
H2       0.14735    0.60915    0.08109   1.00
H2       0.19758    0.46344    0.10068   1.00
H2       0.20035    0.47619    0.05074   1.00
H2       0.23667    0.49166    0.08314   1.00
H2       0.13789    0.50956    0.04557   1.00
H2       0.12670    0.49378    0.09329   1.00
H2       0.12150    0.54343    0.08020   1.00
C4       0.25241    0.74814    -0.02084   1.00
C4       0.25233    0.74887    0.02088   1.00
C3       0.28686    0.74501    -0.04364   1.00
C3       0.28681    0.75011    0.04384   1.00
C3       0.21623    0.75131    -0.04123   1.00
C3       0.21594    0.74822    0.04114   1.00
C2       0.25028    0.74884    -0.10512   1.00
C2       0.24972    0.75116    0.10512   1.00
C3       0.28588    0.74556    -0.08462   1.00
C3       0.28557    0.75086    0.08481   1.00
C3       0.21579    0.75108    -0.08258   1.00
C3       0.21530    0.75068    0.08238   1.00
H1       0.31367    0.74209    -0.03115   1.00
H1       0.31383    0.75076    0.03148   1.00
C5       0.18070    0.75452    -0.02020   1.00
C5       0.18038    0.74548    0.02020   1.00
H1       0.31176    0.74348    -0.09955   1.00
H1       0.31145    0.75141    0.09990   1.00
H1       0.18953    0.75228    -0.09680   1.00
H1       0.18900    0.75270    0.09632   1.00
O3       0.14681    0.76406    -0.03961   1.00
O3       0.14571    0.73706    0.03901   1.00
Si1      0.13315    0.80963    -0.04247   1.00
Si1      0.13447    0.69152    0.04721   1.00
C6       0.09416    0.80255    -0.07538   1.00
C6       0.11605    0.82352    0.00402   1.00
C6       0.16922    0.84048    -0.06253   1.00
C6       0.16817    0.65511    0.03307   1.00
C6       0.12811    0.69008    0.09802   1.00
C6       0.08880    0.68293    0.02523   1.00
C6       0.10334    0.77661    -0.11194   1.00
H2       0.07364    0.78553    -0.05791   1.00
C6       0.07009    0.83806    -0.09147   1.00
H2       0.10725    0.79554    0.01642   1.00
C6       0.14582    0.84140    0.03366   1.00
C6       0.07910    0.85024    0.00664   1.00
H2       0.17845    0.82412    -0.08831   1.00
C6       0.15566    0.88142    -0.07772   1.00
C6       0.20723    0.84947    -0.03849   1.00
C6       0.18095    0.65352    -0.01071   1.00
C6       0.20611    0.64870    0.05775   1.00
H2       0.15158    0.62835    0.03788   1.00
H2       0.15759    0.69372    0.10949   1.00
C6       0.10372    0.72418    0.11622   1.00
C6       0.11193    0.65142    0.11607   1.00
H2       0.06782    0.69447    0.04625   1.00
C6       0.08041    0.70552    -0.01336   1.00
C6       0.07642    0.63961    0.01756   1.00
H2       0.11470    0.74806    -0.10346   1.00
H2       0.12486    0.79056    -0.13090   1.00
H2       0.07704    0.77123    -0.12917   1.00
H2       0.03971    0.82947    -0.09608   1.00
H2       0.07006    0.86292    -0.07178   1.00
H2       0.08097    0.84826    -0.11964   1.00
H2       0.13393    0.84092    0.06328   1.00
H2       0.17298    0.82498    0.03468   1.00
H2       0.15245    0.87171    0.02648   1.00
H2       0.05431    0.83735    -0.00862   1.00
H2       0.06979    0.85422    0.03692   1.00
H2       0.08493    0.87914    -0.00550   1.00
H2       0.13984    0.89740    -0.05514   1.00
H2       0.18027    0.89951    -0.08708   1.00
H2       0.13717    0.87870    -0.10332   1.00
H2       0.20349    0.87440    -0.01902   1.00
H2       0.21694    0.82523    -0.02068   1.00
H2       0.23126    0.85656    -0.05828   1.00
H2       0.20441    0.67406    -0.01688   1.00
H2       0.19185    0.62445    -0.01809   1.00
H2       0.15688    0.65969    -0.03048   1.00
H2       0.22098    0.62192    0.04875   1.00
H2       0.22692    0.67241    0.05426   1.00
H2       0.19985    0.64540    0.08878   1.00
H2       0.10698    0.72449    0.14798   1.00
H2       0.11370    0.75256    0.10565   1.00
H2       0.07269    0.72148    0.10965   1.00
H2       0.12808    0.62596    0.10584   1.00
H2       0.11466    0.65199    0.14788   1.00
H2       0.08109    0.64735    0.10915   1.00
H2       0.10068    0.69758    -0.03656   1.00
H2       0.05074    0.70035    -0.02381   1.00
H2       0.08314    0.73667    -0.00834   1.00
H2       0.04557    0.63789    0.00956   1.00
H2       0.09329    0.62670    -0.00622   1.00
H2       0.08020    0.62150    0.04343   1.00
C4       0.75241    0.25186    0.52084   1.00
C4       0.75233    0.25113    0.47912   1.00
C3       0.78686    0.25499    0.54364   1.00
C3       0.78681    0.24989    0.45616   1.00
C3       0.71623    0.24869    0.54123   1.00
C3       0.71594    0.25178    0.45886   1.00
C2       0.75028    0.25116    0.60512   1.00
C2       0.74972    0.24884    0.39488   1.00
C3       0.78588    0.25444    0.58462   1.00
C3       0.78557    0.24914    0.41519   1.00
C3       0.71579    0.24892    0.58258   1.00
C3       0.71530    0.24932    0.41762   1.00
H1       0.81367    0.25791    0.53115   1.00
H1       0.81383    0.24924    0.46852   1.00
C5       0.68070    0.24548    0.52020   1.00
C5       0.68038    0.25452    0.47980   1.00
H1       0.81176    0.25652    0.59955   1.00
H1       0.81145    0.24859    0.40010   1.00
H1       0.68953    0.24772    0.59680   1.00
H1       0.68900    0.24730    0.40368   1.00
O3       0.64681    0.23594    0.53961   1.00
O3       0.64571    0.26294    0.46099   1.00
Si1      0.63315    0.19037    0.54247   1.00
Si1      0.63447    0.30848    0.45279   1.00
C6       0.59416    0.19745    0.57538   1.00
C6       0.61605    0.17648    0.49598   1.00
C6       0.66922    0.15952    0.56253   1.00
C6       0.66817    0.34489    0.46693   1.00
C6       0.62811    0.30992    0.40198   1.00
C6       0.58880    0.31707    0.47477   1.00
C6       0.60334    0.22339    0.61194   1.00
H2       0.57364    0.21447    0.55791   1.00
C6       0.57009    0.16194    0.59147   1.00
H2       0.60725    0.20446    0.48358   1.00
C6       0.64582    0.15860    0.46634   1.00
C6       0.57910    0.14976    0.49336   1.00
H2       0.67845    0.17588    0.58831   1.00
C6       0.65566    0.11858    0.57772   1.00
C6       0.70723    0.15053    0.53849   1.00
C6       0.68095    0.34648    0.51071   1.00
C6       0.70611    0.35130    0.44225   1.00
H2       0.65158    0.37165    0.46212   1.00
H2       0.65759    0.30628    0.39051   1.00
C6       0.60372    0.27582    0.38378   1.00
C6       0.61193    0.34858    0.38393   1.00
H2       0.56782    0.30553    0.45375   1.00
C6       0.58041    0.29448    0.51336   1.00
C6       0.57642    0.36039    0.48244   1.00
H2       0.61470    0.25194    0.60346   1.00
H2       0.62486    0.20944    0.63090   1.00
H2       0.57704    0.22877    0.62917   1.00
H2       0.53971    0.17053    0.59608   1.00
H2       0.57006    0.13708    0.57178   1.00
H2       0.58097    0.15174    0.61964   1.00
H2       0.63393    0.15908    0.43672   1.00
H2       0.67298    0.17502    0.46532   1.00
H2       0.65245    0.12829    0.47352   1.00
H2       0.55431    0.16265    0.50862   1.00
H2       0.56979    0.14578    0.46308   1.00
H2       0.58493    0.12086    0.50550   1.00
H2       0.63984    0.10260    0.55514   1.00
H2       0.68027    0.10049    0.58708   1.00
H2       0.63717    0.12130    0.60332   1.00
H2       0.70349    0.12560    0.51902   1.00
H2       0.71694    0.17477    0.52068   1.00
H2       0.73126    0.14344    0.55828   1.00
H2       0.70441    0.32594    0.51688   1.00
H2       0.69185    0.37555    0.51809   1.00
H2       0.65688    0.34031    0.53048   1.00
H2       0.72098    0.37808    0.45125   1.00
H2       0.72692    0.32759    0.44574   1.00
H2       0.69985    0.35460    0.41122   1.00
H2       0.60698    0.27551    0.35202   1.00
H2       0.61370    0.24744    0.39435   1.00
H2       0.57269    0.27852    0.39035   1.00
H2       0.62808    0.37404    0.39416   1.00
H2       0.61466    0.34801    0.35212   1.00
H2       0.58109    0.35265    0.39085   1.00
H2       0.60068    0.30242    0.53656   1.00
H2       0.55074    0.29965    0.52381   1.00
H2       0.58314    0.26333    0.50834   1.00
H2       0.54557    0.36211    0.49044   1.00
H2       0.59329    0.37330    0.50622   1.00
H2       0.58020    0.37850    0.45657   1.00
C4       0.75186    0.52084    0.25241   1.00
C4       0.75113    0.47912    0.25233   1.00
C3       0.75499    0.54364    0.28686   1.00
C3       0.74989    0.45616    0.28681   1.00
C3       0.74869    0.54123    0.21623   1.00
C3       0.75178    0.45886    0.21594   1.00
C2       0.75116    0.60512    0.25028   1.00
C2       0.74884    0.39488    0.24972   1.00
C3       0.75444    0.58462    0.28588   1.00
C3       0.74914    0.41519    0.28557   1.00
C3       0.74892    0.58258    0.21579   1.00
C3       0.74932    0.41762    0.21530   1.00
H1       0.75791    0.53115    0.31367   1.00
H1       0.74924    0.46852    0.31383   1.00
C5       0.74548    0.52020    0.18070   1.00
C5       0.75452    0.47980    0.18038   1.00
H1       0.75652    0.59955    0.31176   1.00
H1       0.74859    0.40010    0.31145   1.00
H1       0.74772    0.59680    0.18953   1.00
H1       0.74730    0.40368    0.18900   1.00
O3       0.73594    0.53961    0.14681   1.00
O3       0.76294    0.46099    0.14571   1.00
Si1      0.69037    0.54247    0.13315   1.00
Si1      0.80848    0.45279    0.13447   1.00
C6       0.69745    0.57538    0.09416   1.00
C6       0.67648    0.49598    0.11605   1.00
C6       0.65952    0.56253    0.16922   1.00
C6       0.84489    0.46693    0.16817   1.00
C6       0.80992    0.40198    0.12811   1.00
C6       0.81707    0.47477    0.08880   1.00
C6       0.72339    0.61194    0.10334   1.00
H2       0.71447    0.55791    0.07364   1.00
C6       0.66194    0.59147    0.07009   1.00
H2       0.70446    0.48358    0.10725   1.00
C6       0.65860    0.46634    0.14582   1.00
C6       0.64976    0.49336    0.07910   1.00
H2       0.67588    0.58831    0.17845   1.00
C6       0.61858    0.57772    0.15566   1.00
C6       0.65053    0.53849    0.20723   1.00
C6       0.84648    0.51071    0.18095   1.00
C6       0.85130    0.44225    0.20611   1.00
H2       0.87165    0.46212    0.15158   1.00
H2       0.80628    0.39051    0.15759   1.00
C6       0.77582    0.38378    0.10372   1.00
C6       0.84858    0.38393    0.11193   1.00
H2       0.80553    0.45375    0.06782   1.00
C6       0.79448    0.51336    0.08041   1.00
C6       0.86039    0.48244    0.07642   1.00
H2       0.75194    0.60346    0.11470   1.00
H2       0.70944    0.63090    0.12486   1.00
H2       0.72877    0.62917    0.07704   1.00
H2       0.67053    0.59608    0.03971   1.00
H2       0.63708    0.57178    0.07006   1.00
H2       0.65174    0.61964    0.08097   1.00
H2       0.65908    0.43672    0.13393   1.00
H2       0.67502    0.46532    0.17298   1.00
H2       0.62829    0.47352    0.15245   1.00
H2       0.66265    0.50862    0.05431   1.00
H2       0.64578    0.46308    0.06979   1.00
H2       0.62086    0.50550    0.08493   1.00
H2       0.60260    0.55514    0.13984   1.00
H2       0.60049    0.58708    0.18027   1.00
H2       0.62130    0.60332    0.13717   1.00
H2       0.62560    0.51902    0.20349   1.00
H2       0.67477    0.52068    0.21694   1.00
H2       0.64344    0.55828    0.23126   1.00
H2       0.82594    0.51688    0.20441   1.00
H2       0.87555    0.51809    0.19185   1.00
H2       0.84031    0.53048    0.15688   1.00
H2       0.87808    0.45125    0.22098   1.00
H2       0.82759    0.44574    0.22692   1.00
H2       0.85460    0.41122    0.19985   1.00
H2       0.77551    0.35202    0.10698   1.00
H2       0.74744    0.39435    0.11370   1.00
H2       0.77852    0.39035    0.07269   1.00
H2       0.87404    0.39416    0.12808   1.00
H2       0.84801    0.35212    0.11466   1.00
H2       0.85265    0.39085    0.08109   1.00
H2       0.80242    0.53656    0.10068   1.00
H2       0.79965    0.52381    0.05074   1.00
H2       0.76333    0.50834    0.08314   1.00
H2       0.86211    0.49044    0.04557   1.00
H2       0.87330    0.50622    0.09329   1.00
H2       0.87850    0.45657    0.08020   1.00
C4       0.47916    0.25241    0.24814   1.00
C4       0.52088    0.25233    0.24887   1.00
C3       0.45636    0.28686    0.24501   1.00
C3       0.54384    0.28681    0.25011   1.00
C3       0.45877    0.21623    0.25131   1.00
C3       0.54114    0.21594    0.24822   1.00
C2       0.39488    0.25028    0.24884   1.00
C2       0.60512    0.24972    0.25116   1.00
C3       0.41538    0.28588    0.24556   1.00
C3       0.58481    0.28557    0.25086   1.00
C3       0.41742    0.21579    0.25108   1.00
C3       0.58238    0.21530    0.25068   1.00
H1       0.46885    0.31367    0.24209   1.00
H1       0.53148    0.31383    0.25076   1.00
C5       0.47980    0.18070    0.25452   1.00
C5       0.52020    0.18038    0.24548   1.00
H1       0.40045    0.31176    0.24348   1.00
H1       0.59990    0.31145    0.25141   1.00
H1       0.40320    0.18953    0.25228   1.00
H1       0.59632    0.18900    0.25270   1.00
O3       0.46039    0.14681    0.26406   1.00
O3       0.53901    0.14571    0.23706   1.00
Si1      0.45753    0.13315    0.30963   1.00
Si1      0.54721    0.13447    0.19152   1.00
C6       0.42462    0.09416    0.30255   1.00
C6       0.50402    0.11605    0.32352   1.00
C6       0.43747    0.16922    0.34048   1.00
C6       0.53307    0.16817    0.15511   1.00
C6       0.59802    0.12811    0.19008   1.00
C6       0.52523    0.08880    0.18293   1.00
C6       0.38806    0.10334    0.27661   1.00
H2       0.44209    0.07364    0.28553   1.00
C6       0.40853    0.07009    0.33806   1.00
H2       0.51642    0.10725    0.29554   1.00
C6       0.53366    0.14582    0.34140   1.00
C6       0.50664    0.07910    0.35024   1.00
H2       0.41169    0.17845    0.32412   1.00
C6       0.42228    0.15566    0.38142   1.00
C6       0.46151    0.20723    0.34947   1.00
C6       0.48929    0.18095    0.15352   1.00
C6       0.55775    0.20611    0.14870   1.00
H2       0.53788    0.15158    0.12835   1.00
H2       0.60949    0.15759    0.19372   1.00
C6       0.61622    0.10372    0.22418   1.00
C6       0.61607    0.11193    0.15142   1.00
H2       0.54625    0.06782    0.19447   1.00
C6       0.48664    0.08041    0.20552   1.00
C6       0.51756    0.07642    0.13961   1.00
H2       0.39654    0.11470    0.24806   1.00
H2       0.36910    0.12486    0.29056   1.00
H2       0.37083    0.07704    0.27123   1.00
H2       0.40392    0.03971    0.32947   1.00
H2       0.42822    0.07006    0.36292   1.00
H2       0.38036    0.08097    0.34826   1.00
H2       0.56328    0.13393    0.34092   1.00
H2       0.53468    0.17298    0.32498   1.00
H2       0.52648    0.15245    0.37171   1.00
H2       0.49138    0.05431    0.33735   1.00
H2       0.53692    0.06979    0.35422   1.00
H2       0.49450    0.08493    0.37914   1.00
H2       0.44486    0.13984    0.39740   1.00
H2       0.41292    0.18027    0.39951   1.00
H2       0.39668    0.13717    0.37870   1.00
H2       0.48098    0.20349    0.37440   1.00
H2       0.47932    0.21694    0.32523   1.00
H2       0.44172    0.23126    0.35656   1.00
H2       0.48312    0.20441    0.17406   1.00
H2       0.48191    0.19185    0.12445   1.00
H2       0.46952    0.15688    0.15969   1.00
H2       0.54875    0.22098    0.12192   1.00
H2       0.55426    0.22692    0.17241   1.00
H2       0.58878    0.19985    0.14540   1.00
H2       0.64798    0.10698    0.22449   1.00
H2       0.60565    0.11370    0.25256   1.00
H2       0.60965    0.07269    0.22148   1.00
H2       0.60584    0.12808    0.12596   1.00
H2       0.64788    0.11466    0.15199   1.00
H2       0.60915    0.08109    0.14735   1.00
H2       0.46344    0.10068    0.19758   1.00
H2       0.47619    0.05074    0.20035   1.00
H2       0.49166    0.08314    0.23667   1.00
H2       0.50956    0.04557    0.13789   1.00
H2       0.49378    0.09329    0.12670   1.00
H2       0.54343    0.08020    0.12150   1.00
C4       1.02084    0.25241    0.25186   1.00
C4       0.97912    0.25233    0.25113   1.00
C3       1.04364    0.28686    0.25499   1.00
C3       0.95616    0.28681    0.24989   1.00
C3       1.04123    0.21623    0.24869   1.00
C3       0.95886    0.21594    0.25178   1.00
C2       1.10512    0.25028    0.25116   1.00
C2       0.89488    0.24972    0.24884   1.00
C3       1.08462    0.28588    0.25444   1.00
C3       0.91519    0.28557    0.24914   1.00
C3       1.08258    0.21579    0.24892   1.00
C3       0.91762    0.21530    0.24932   1.00
H1       1.03115    0.31367    0.25791   1.00
H1       0.96852    0.31383    0.24924   1.00
C5       1.02020    0.18070    0.24548   1.00
C5       0.97980    0.18038    0.25452   1.00
H1       1.09955    0.31176    0.25652   1.00
H1       0.90010    0.31145    0.24859   1.00
H1       1.09680    0.18953    0.24772   1.00
H1       0.90368    0.18900    0.24730   1.00
O3       1.03961    0.14681    0.23594   1.00
O3       0.96099    0.14571    0.26294   1.00
Si1      1.04247    0.13315    0.19037   1.00
Si1      0.95279    0.13447    0.30848   1.00
C6       1.07538    0.09416    0.19745   1.00
C6       0.99598    0.11605    0.17648   1.00
C6       1.06253    0.16922    0.15952   1.00
C6       0.96693    0.16817    0.34489   1.00
C6       0.90198    0.12811    0.30992   1.00
C6       0.97477    0.08880    0.31707   1.00
C6       1.11194    0.10334    0.22339   1.00
H2       1.05791    0.07364    0.21447   1.00
C6       1.09147    0.07009    0.16194   1.00
H2       0.98358    0.10725    0.20446   1.00
C6       0.96634    0.14582    0.15860   1.00
C6       0.99336    0.07910    0.14976   1.00
H2       1.08831    0.17845    0.17588   1.00
C6       1.07772    0.15566    0.11858   1.00
C6       1.03849    0.20723    0.15053   1.00
C6       1.01071    0.18095    0.34648   1.00
C6       0.94225    0.20611    0.35130   1.00
H2       0.96212    0.15158    0.37165   1.00
H2       0.89051    0.15759    0.30628   1.00
C6       0.88378    0.10372    0.27582   1.00
C6       0.88393    0.11193    0.34858   1.00
H2       0.95375    0.06782    0.30553   1.00
C6       1.01336    0.08041    0.29448   1.00
C6       0.98244    0.07642    0.36039   1.00
H2       1.10346    0.11470    0.25194   1.00
H2       1.13090    0.12486    0.20944   1.00
H2       1.12917    0.07704    0.22877   1.00
H2       1.09608    0.03971    0.17053   1.00
H2       1.07178    0.07006    0.13708   1.00
H2       1.11964    0.08097    0.15174   1.00
H2       0.93672    0.13393    0.15908   1.00
H2       0.96532    0.17298    0.17502   1.00
H2       0.97352    0.15245    0.12829   1.00
H2       1.00862    0.05431    0.16265   1.00
H2       0.96308    0.06979    0.14578   1.00
H2       1.00550    0.08493    0.12086   1.00
H2       1.05514    0.13984    0.10260   1.00
H2       1.08708    0.18027    0.10049   1.00
H2       1.10332    0.13717    0.12130   1.00
H2       1.01902    0.20349    0.12560   1.00
H2       1.02068    0.21694    0.17477   1.00
H2       1.05828    0.23126    0.14344   1.00
H2       1.01688    0.20441    0.32594   1.00
H2       1.01809    0.19185    0.37555   1.00
H2       1.03048    0.15688    0.34031   1.00
H2       0.95125    0.22098    0.37808   1.00
H2       0.94574    0.22692    0.32759   1.00
H2       0.91122    0.19985    0.35460   1.00
H2       0.85202    0.10698    0.27551   1.00
H2       0.89435    0.11370    0.24744   1.00
H2       0.89035    0.07269    0.27852   1.00
H2       0.89416    0.12808    0.37404   1.00
H2       0.85212    0.11466    0.34801   1.00
H2       0.89085    0.08109    0.35265   1.00
H2       1.03656    0.10068    0.30242   1.00
H2       1.02381    0.05074    0.29965   1.00
H2       1.00834    0.08314    0.26333   1.00
H2       0.99044    0.04557    0.36211   1.00
H2       1.00622    0.09329    0.37330   1.00
H2       0.95657    0.08020    0.37850   1.00
C4       0.74814    -0.02084   0.25241   1.00
C4       0.74887    0.02088    0.25233   1.00
C3       0.74501    -0.04364   0.28686   1.00
C3       0.75011    0.04384    0.28681   1.00
C3       0.75131    -0.04123   0.21623   1.00
C3       0.74822    0.04114    0.21594   1.00
C2       0.74884    -0.10512   0.25028   1.00
C2       0.75116    0.10512    0.24972   1.00
C3       0.74556    -0.08462   0.28588   1.00
C3       0.75086    0.08481    0.28557   1.00
C3       0.75108    -0.08258   0.21579   1.00
C3       0.75068    0.08238    0.21530   1.00
H1       0.74209    -0.03115   0.31367   1.00
H1       0.75076    0.03148    0.31383   1.00
C5       0.75452    -0.02020   0.18070   1.00
C5       0.74548    0.02020    0.18038   1.00
H1       0.74348    -0.09955   0.31176   1.00
H1       0.75141    0.09990    0.31145   1.00
H1       0.75228    -0.09680   0.18953   1.00
H1       0.75270    0.09632    0.18900   1.00
O3       0.76406    -0.03961   0.14681   1.00
O3       0.73706    0.03901    0.14571   1.00
Si1      0.80963    -0.04247   0.13315   1.00
Si1      0.69152    0.04721    0.13447   1.00
C6       0.80255    -0.07538   0.09416   1.00
C6       0.82352    0.00402    0.11605   1.00
C6       0.84048    -0.06253   0.16922   1.00
C6       0.65511    0.03307    0.16817   1.00
C6       0.69008    0.09802    0.12811   1.00
C6       0.68293    0.02523    0.08880   1.00
C6       0.77661    -0.11194   0.10334   1.00
H2       0.78553    -0.05791   0.07364   1.00
C6       0.83806    -0.09147   0.07009   1.00
H2       0.79554    0.01642    0.10725   1.00
C6       0.84140    0.03366    0.14582   1.00
C6       0.85024    0.00664    0.07910   1.00
H2       0.82412    -0.08831   0.17845   1.00
C6       0.88142    -0.07772   0.15566   1.00
C6       0.84947    -0.03849   0.20723   1.00
C6       0.65352    -0.01071   0.18095   1.00
C6       0.64870    0.05775    0.20611   1.00
H2       0.62835    0.03788    0.15158   1.00
H2       0.69372    0.10949    0.15759   1.00
C6       0.72418    0.11622    0.10372   1.00
C6       0.65142    0.11607    0.11193   1.00
H2       0.69447    0.04625    0.06782   1.00
C6       0.70552    -0.01336   0.08041   1.00
C6       0.63961    0.01756    0.07642   1.00
H2       0.74806    -0.10346   0.11470   1.00
H2       0.79056    -0.13090   0.12486   1.00
H2       0.77123    -0.12917   0.07704   1.00
H2       0.82947    -0.09608   0.03971   1.00
H2       0.86292    -0.07178   0.07006   1.00
H2       0.84826    -0.11964   0.08097   1.00
H2       0.84092    0.06328    0.13393   1.00
H2       0.82498    0.03468    0.17298   1.00
H2       0.87171    0.02648    0.15245   1.00
H2       0.83735    -0.00862   0.05431   1.00
H2       0.85422    0.03692    0.06979   1.00
H2       0.87914    -0.00550   0.08493   1.00
H2       0.89740    -0.05514   0.13984   1.00
H2       0.89951    -0.08708   0.18027   1.00
H2       0.87870    -0.10332   0.13717   1.00
H2       0.87440    -0.01902   0.20349   1.00
H2       0.82523    -0.02068   0.21694   1.00
H2       0.85656    -0.05828   0.23126   1.00
H2       0.67406    -0.01688   0.20441   1.00
H2       0.62445    -0.01809   0.19185   1.00
H2       0.65969    -0.03048   0.15688   1.00
H2       0.62192    0.04875    0.22098   1.00
H2       0.67241    0.05426    0.22692   1.00
H2       0.64540    0.08878    0.19985   1.00
H2       0.72449    0.14798    0.10698   1.00
H2       0.75256    0.10565    0.11370   1.00
H2       0.72148    0.10965    0.07269   1.00
H2       0.62596    0.10584    0.12808   1.00
H2       0.65199    0.14788    0.11466   1.00
H2       0.64735    0.10915    0.08109   1.00
H2       0.69758    -0.03656   0.10068   1.00
H2       0.70035    -0.02381   0.05074   1.00
H2       0.73667    -0.00834   0.08314   1.00
H2       0.63789    0.00956    0.04557   1.00
H2       0.62670    -0.00622   0.09329   1.00
H2       0.62150    0.04343    0.08020   1.00
C4       0.75241    0.24814    -0.02084   1.00
C4       0.75233    0.24887    0.02088   1.00
C3       0.78686    0.24501    -0.04364   1.00
C3       0.78681    0.25011    0.04384   1.00
C3       0.71623    0.25131    -0.04123   1.00
C3       0.71594    0.24822    0.04114   1.00
C2       0.75028    0.24884    -0.10512   1.00
C2       0.74972    0.25116    0.10512   1.00
C3       0.78588    0.24556    -0.08462   1.00
C3       0.78557    0.25086    0.08481   1.00
C3       0.71579    0.25108    -0.08258   1.00
C3       0.71530    0.25068    0.08238   1.00
H1       0.81367    0.24209    -0.03115   1.00
H1       0.81383    0.25076    0.03148   1.00
C5       0.68070    0.25452    -0.02020   1.00
C5       0.68038    0.24548    0.02020   1.00
H1       0.81176    0.24348    -0.09955   1.00
H1       0.81145    0.25141    0.09990   1.00
H1       0.68953    0.25228    -0.09680   1.00
H1       0.68900    0.25270    0.09632   1.00
O3       0.64681    0.26406    -0.03961   1.00
O3       0.64571    0.23706    0.03901   1.00
Si1      0.63315    0.30963    -0.04247   1.00
Si1      0.63447    0.19152    0.04721   1.00
C6       0.59416    0.30255    -0.07538   1.00
C6       0.61605    0.32352    0.00402   1.00
C6       0.66922    0.34048    -0.06253   1.00
C6       0.66817    0.15511    0.03307   1.00
C6       0.62811    0.19008    0.09802   1.00
C6       0.58880    0.18293    0.02523   1.00
C6       0.60334    0.27661    -0.11194   1.00
H2       0.57364    0.28553    -0.05791   1.00
C6       0.57009    0.33806    -0.09147   1.00
H2       0.60725    0.29554    0.01642   1.00
C6       0.64582    0.34140    0.03366   1.00
C6       0.57910    0.35024    0.00664   1.00
H2       0.67845    0.32412    -0.08831   1.00
C6       0.65566    0.38142    -0.07772   1.00
C6       0.70723    0.34947    -0.03849   1.00
C6       0.68095    0.15352    -0.01071   1.00
C6       0.70611    0.14870    0.05775   1.00
H2       0.65158    0.12835    0.03788   1.00
H2       0.65759    0.19372    0.10949   1.00
C6       0.60372    0.22418    0.11622   1.00
C6       0.61193    0.15142    0.11607   1.00
H2       0.56782    0.19447    0.04625   1.00
C6       0.58041    0.20552    -0.01336   1.00
C6       0.57642    0.13961    0.01756   1.00
H2       0.61470    0.24806    -0.10346   1.00
H2       0.62486    0.29056    -0.13090   1.00
H2       0.57704    0.27123    -0.12917   1.00
H2       0.53971    0.32947    -0.09608   1.00
H2       0.57006    0.36292    -0.07178   1.00
H2       0.58097    0.34826    -0.11964   1.00
H2       0.63393    0.34092    0.06328   1.00
H2       0.67298    0.32498    0.03468   1.00
H2       0.65245    0.37171    0.02648   1.00
H2       0.55431    0.33735    -0.00862   1.00
H2       0.56979    0.35422    0.03692   1.00
H2       0.58493    0.37914    -0.00550   1.00
H2       0.63984    0.39740    -0.05514   1.00
H2       0.68027    0.39951    -0.08708   1.00
H2       0.63717    0.37870    -0.10332   1.00
H2       0.70349    0.37440    -0.01902   1.00
H2       0.71694    0.32523    -0.02068   1.00
H2       0.73126    0.35656    -0.05828   1.00
H2       0.70441    0.17406    -0.01688   1.00
H2       0.69185    0.12445    -0.01809   1.00
H2       0.65688    0.15969    -0.03048   1.00
H2       0.72098    0.12192    0.04875   1.00
H2       0.72692    0.17241    0.05426   1.00
H2       0.69985    0.14540    0.08878   1.00
H2       0.60698    0.22449    0.14798   1.00
H2       0.61370    0.25256    0.10565   1.00
H2       0.57269    0.22148    0.10965   1.00
H2       0.62808    0.12596    0.10584   1.00
H2       0.61466    0.15199    0.14788   1.00
H2       0.58109    0.14735    0.10915   1.00
H2       0.60068    0.19758    -0.03656   1.00
H2       0.55074    0.20035    -0.02381   1.00
H2       0.58314    0.23667    -0.00834   1.00
H2       0.54557    0.13789    0.00956   1.00
H2       0.59329    0.12670    -0.00622   1.00
H2       0.58020    0.12150    0.04343   1.00
C4       1.00241    1.00186    1.27084   1.00
C4       1.00233    1.00113    1.22912   1.00
C3       1.03686    1.00499    1.29364   1.00
C3       1.03681    0.99989    1.20616   1.00
C3       0.96623    0.99869    1.29123   1.00
C3       0.96594    1.00178    1.20886   1.00
C2       1.00028    1.00116    1.35512   1.00
C2       0.99972    0.99884    1.14488   1.00
C3       1.03588    1.00444    1.33462   1.00
C3       1.03557    0.99914    1.16519   1.00
C3       0.96579    0.99892    1.33258   1.00
C3       0.96530    0.99932    1.16762   1.00
H1       1.06367    1.00791    1.28115   1.00
H1       1.06383    0.99924    1.21852   1.00
C5       0.93070    0.99548    1.27020   1.00
C5       0.93038    1.00452    1.22980   1.00
H1       1.06176    1.00652    1.34955   1.00
H1       1.06145    0.99859    1.15010   1.00
H1       0.93953    0.99772    1.34680   1.00
H1       0.93900    0.99730    1.15368   1.00
O3       0.89681    0.98594    1.28961   1.00
O3       0.89571    1.01294    1.21099   1.00
Si1      0.88315    0.94037    1.29247   1.00
Si1      0.88447    1.05848    1.20279   1.00
C6       0.84416    0.94745    1.32538   1.00
C6       0.86605    0.92648    1.24598   1.00
C6       0.91922    0.90952    1.31253   1.00
C6       0.91817    1.09489    1.21693   1.00
C6       0.87811    1.05992    1.15198   1.00
C6       0.83880    1.06707    1.22477   1.00
C6       0.85334    0.97339    1.36194   1.00
H2       0.82364    0.96447    1.30791   1.00
C6       0.82009    0.91194    1.34147   1.00
H2       0.85725    0.95446    1.23358   1.00
C6       0.89582    0.90860    1.21634   1.00
C6       0.82910    0.89976    1.24336   1.00
H2       0.92845    0.92588    1.33831   1.00
C6       0.90566    0.86858    1.32772   1.00
C6       0.95723    0.90053    1.28849   1.00
C6       0.93095    1.09648    1.26071   1.00
C6       0.95611    1.10130    1.19225   1.00
H2       0.90158    1.12165    1.21212   1.00
H2       0.90759    1.05628    1.14051   1.00
C6       0.85372    1.02582    1.13378   1.00
C6       0.86193    1.09858    1.13393   1.00
H2       0.81782    1.05553    1.20375   1.00
C6       0.83041    1.04448    1.26336   1.00
C6       0.82642    1.11039    1.23244   1.00
H2       0.86470    1.00194    1.35346   1.00
H2       0.87486    0.95944    1.38090   1.00
H2       0.82704    0.97877    1.37917   1.00
H2       0.78971    0.92053    1.34608   1.00
H2       0.82006    0.88708    1.32178   1.00
H2       0.83097    0.90174    1.36964   1.00
H2       0.88393    0.90908    1.18672   1.00
H2       0.92298    0.92502    1.21532   1.00
H2       0.90245    0.87829    1.22352   1.00
H2       0.80431    0.91265    1.25862   1.00
H2       0.81979    0.89578    1.21308   1.00
H2       0.83493    0.87086    1.25550   1.00
H2       0.88984    0.85260    1.30514   1.00
H2       0.93027    0.85049    1.33708   1.00
H2       0.88717    0.87130    1.35332   1.00
H2       0.95349    0.87560    1.26902   1.00
H2       0.96694    0.92477    1.27068   1.00
H2       0.98126    0.89344    1.30828   1.00
H2       0.95441    1.07594    1.26688   1.00
H2       0.94185    1.12555    1.26809   1.00
H2       0.90688    1.09031    1.28048   1.00
H2       0.97098    1.12808    1.20125   1.00
H2       0.97692    1.07759    1.19574   1.00
H2       0.94985    1.10460    1.16122   1.00
H2       0.85698    1.02551    1.10202   1.00
H2       0.86370    0.99744    1.14435   1.00
H2       0.82269    1.02852    1.14035   1.00
H2       0.87808    1.12404    1.14416   1.00
H2       0.86466    1.09801    1.10212   1.00
H2       0.83109    1.10265    1.14085   1.00
H2       0.85068    1.05242    1.28656   1.00
H2       0.80074    1.04965    1.27381   1.00
H2       0.83314    1.01333    1.25834   1.00
H2       0.79557    1.11211    1.24044   1.00
H2       0.84329    1.12330    1.25622   1.00
H2       0.83020    1.12850    1.20657   1.00
C4       1.00186    1.27084    1.00241   1.00
C4       1.00113    1.22912    1.00233   1.00
C3       1.00499    1.29364    1.03686   1.00
C3       0.99989    1.20616    1.03681   1.00
C3       0.99869    1.29123    0.96623   1.00
C3       1.00178    1.20886    0.96594   1.00
C2       1.00116    1.35512    1.00028   1.00
C2       0.99884    1.14488    0.99972   1.00
C3       1.00444    1.33462    1.03588   1.00
C3       0.99914    1.16519    1.03557   1.00
C3       0.99892    1.33258    0.96579   1.00
C3       0.99932    1.16762    0.96530   1.00
H1       1.00791    1.28115    1.06367   1.00
H1       0.99924    1.21852    1.06383   1.00
C5       0.99548    1.27020    0.93070   1.00
C5       1.00452    1.22980    0.93038   1.00
H1       1.00652    1.34955    1.06176   1.00
H1       0.99859    1.15010    1.06145   1.00
H1       0.99772    1.34680    0.93953   1.00
H1       0.99730    1.15368    0.93900   1.00
O3       0.98594    1.28961    0.89681   1.00
O3       1.01294    1.21099    0.89571   1.00
Si1      0.94037    1.29247    0.88315   1.00
Si1      1.05848    1.20279    0.88447   1.00
C6       0.94745    1.32538    0.84416   1.00
C6       0.92648    1.24598    0.86605   1.00
C6       0.90952    1.31253    0.91922   1.00
C6       1.09489    1.21693    0.91817   1.00
C6       1.05992    1.15198    0.87811   1.00
C6       1.06707    1.22477    0.83880   1.00
C6       0.97339    1.36194    0.85334   1.00
H2       0.96447    1.30791    0.82364   1.00
C6       0.91194    1.34147    0.82009   1.00
H2       0.95446    1.23358    0.85725   1.00
C6       0.90860    1.21634    0.89582   1.00
C6       0.89976    1.24336    0.82910   1.00
H2       0.92588    1.33831    0.92845   1.00
C6       0.86858    1.32772    0.90566   1.00
C6       0.90053    1.28849    0.95723   1.00
C6       1.09648    1.26071    0.93095   1.00
C6       1.10130    1.19225    0.95611   1.00
H2       1.12165    1.21212    0.90158   1.00
H2       1.05628    1.14051    0.90759   1.00
C6       1.02582    1.13378    0.85372   1.00
C6       1.09858    1.13393    0.86193   1.00
H2       1.05553    1.20375    0.81782   1.00
C6       1.04448    1.26336    0.83041   1.00
C6       1.11039    1.23244    0.82642   1.00
H2       1.00194    1.35346    0.86470   1.00
H2       0.95944    1.38090    0.87486   1.00
H2       0.97877    1.37917    0.82704   1.00
H2       0.92053    1.34608    0.78971   1.00
H2       0.88708    1.32178    0.82006   1.00
H2       0.90174    1.36964    0.83097   1.00
H2       0.90908    1.18672    0.88393   1.00
H2       0.92502    1.21532    0.92298   1.00
H2       0.87829    1.22352    0.90245   1.00
H2       0.91265    1.25862    0.80431   1.00
H2       0.89578    1.21308    0.81979   1.00
H2       0.87086    1.25550    0.83493   1.00
H2       0.85260    1.30514    0.88984   1.00
H2       0.85049    1.33708    0.93027   1.00
H2       0.87130    1.35332    0.88717   1.00
H2       0.87560    1.26902    0.95349   1.00
H2       0.92477    1.27068    0.96694   1.00
H2       0.89344    1.30828    0.98126   1.00
H2       1.07594    1.26688    0.95441   1.00
H2       1.12555    1.26809    0.94185   1.00
H2       1.09031    1.28048    0.90688   1.00
H2       1.12808    1.20125    0.97098   1.00
H2       1.07759    1.19574    0.97692   1.00
H2       1.10460    1.16122    0.94985   1.00
H2       1.02551    1.10202    0.85698   1.00
H2       0.99744    1.14435    0.86370   1.00
H2       1.02852    1.14035    0.82269   1.00
H2       1.12404    1.14416    0.87808   1.00
H2       1.09801    1.10212    0.86466   1.00
H2       1.10265    1.14085    0.83109   1.00
H2       1.05242    1.28656    0.85068   1.00
H2       1.04965    1.27381    0.80074   1.00
H2       1.01333    1.25834    0.83314   1.00
H2       1.11211    1.24044    0.79557   1.00
H2       1.12330    1.25622    0.84329   1.00
H2       1.12850    1.20657    0.83020   1.00
C4       0.72916    1.00241    0.99814   1.00
C4       0.77088    1.00233    0.99887   1.00
C3       0.70636    1.03686    0.99501   1.00
C3       0.79384    1.03681    1.00011   1.00
C3       0.70877    0.96623    1.00131   1.00
C3       0.79114    0.96594    0.99822   1.00
C2       0.64488    1.00028    0.99884   1.00
C2       0.85512    0.99972    1.00116   1.00
C3       0.66538    1.03588    0.99556   1.00
C3       0.83481    1.03557    1.00086   1.00
C3       0.66742    0.96579    1.00108   1.00
C3       0.83238    0.96530    1.00068   1.00
H1       0.71885    1.06367    0.99209   1.00
H1       0.78148    1.06383    1.00076   1.00
C5       0.72980    0.93070    1.00452   1.00
C5       0.77020    0.93038    0.99548   1.00
H1       0.65045    1.06176    0.99348   1.00
H1       0.84990    1.06145    1.00141   1.00
H1       0.65320    0.93953    1.00228   1.00
H1       0.84632    0.93900    1.00270   1.00
O3       0.71039    0.89681    1.01406   1.00
O3       0.78901    0.89571    0.98706   1.00
Si1      0.70753    0.88315    1.05963   1.00
Si1      0.79721    0.88447    0.94152   1.00
C6       0.67462    0.84416    1.05255   1.00
C6       0.75402    0.86605    1.07352   1.00
C6       0.68747    0.91922    1.09048   1.00
C6       0.78307    0.91817    0.90511   1.00
C6       0.84802    0.87811    0.94008   1.00
C6       0.77523    0.83880    0.93293   1.00
C6       0.63806    0.85334    1.02661   1.00
H2       0.69209    0.82364    1.03553   1.00
C6       0.65853    0.82009    1.08806   1.00
H2       0.76642    0.85725    1.04554   1.00
C6       0.78366    0.89582    1.09140   1.00
C6       0.75664    0.82910    1.10024   1.00
H2       0.66169    0.92845    1.07412   1.00
C6       0.67228    0.90566    1.13142   1.00
C6       0.71151    0.95723    1.09947   1.00
C6       0.73929    0.93095    0.90352   1.00
C6       0.80775    0.95611    0.89870   1.00
H2       0.78788    0.90158    0.87835   1.00
H2       0.85949    0.90759    0.94372   1.00
C6       0.86622    0.85372    0.97418   1.00
C6       0.86607    0.86193    0.90142   1.00
H2       0.79625    0.81782    0.94447   1.00
C6       0.73664    0.83041    0.95552   1.00
C6       0.76756    0.82642    0.88961   1.00
H2       0.64654    0.86470    0.99806   1.00
H2       0.61910    0.87486    1.04056   1.00
H2       0.62083    0.82704    1.02123   1.00
H2       0.65392    0.78971    1.07947   1.00
H2       0.67822    0.82006    1.11292   1.00
H2       0.63036    0.83097    1.09826   1.00
H2       0.81328    0.88393    1.09092   1.00
H2       0.78468    0.92298    1.07498   1.00
H2       0.77648    0.90245    1.12171   1.00
H2       0.74138    0.80431    1.08735   1.00
H2       0.78692    0.81979    1.10422   1.00
H2       0.74450    0.83493    1.12914   1.00
H2       0.69486    0.88984    1.14740   1.00
H2       0.66292    0.93027    1.14951   1.00
H2       0.64668    0.88717    1.12870   1.00
H2       0.73098    0.95349    1.12440   1.00
H2       0.72932    0.96694    1.07523   1.00
H2       0.69172    0.98126    1.10656   1.00
H2       0.73312    0.95441    0.92406   1.00
H2       0.73191    0.94185    0.87445   1.00
H2       0.71952    0.90688    0.90969   1.00
H2       0.79875    0.97098    0.87192   1.00
H2       0.80426    0.97692    0.92241   1.00
H2       0.83878    0.94985    0.89540   1.00
H2       0.89798    0.85698    0.97449   1.00
H2       0.85565    0.86370    1.00256   1.00
H2       0.85965    0.82269    0.97148   1.00
H2       0.85584    0.87808    0.87596   1.00
H2       0.89788    0.86466    0.90199   1.00
H2       0.85915    0.83109    0.89735   1.00
H2       0.71344    0.85068    0.94758   1.00
H2       0.72619    0.80074    0.95035   1.00
H2       0.74166    0.83314    0.98667   1.00
H2       0.75956    0.79557    0.88789   1.00
H2       0.74378    0.84329    0.87670   1.00
H2       0.79343    0.83020    0.87150   1.00
C4       1.27084    1.00241    1.00186   1.00
C4       1.22912    1.00233    1.00113   1.00
C3       1.29364    1.03686    1.00499   1.00
C3       1.20616    1.03681    0.99989   1.00
C3       1.29123    0.96623    0.99869   1.00
C3       1.20886    0.96594    1.00178   1.00
C2       1.35512    1.00028    1.00116   1.00
C2       1.14488    0.99972    0.99884   1.00
C3       1.33462    1.03588    1.00444   1.00
C3       1.16519    1.03557    0.99914   1.00
C3       1.33258    0.96579    0.99892   1.00
C3       1.16762    0.96530    0.99932   1.00
H1       1.28115    1.06367    1.00791   1.00
H1       1.21852    1.06383    0.99924   1.00
C5       1.27020    0.93070    0.99548   1.00
C5       1.22980    0.93038    1.00452   1.00
H1       1.34955    1.06176    1.00652   1.00
H1       1.15010    1.06145    0.99859   1.00
H1       1.34680    0.93953    0.99772   1.00
H1       1.15368    0.93900    0.99730   1.00
O3       1.28961    0.89681    0.98594   1.00
O3       1.21099    0.89571    1.01294   1.00
Si1      1.29247    0.88315    0.94037   1.00
Si1      1.20279    0.88447    1.05848   1.00
C6       1.32538    0.84416    0.94745   1.00
C6       1.24598    0.86605    0.92648   1.00
C6       1.31253    0.91922    0.90952   1.00
C6       1.21693    0.91817    1.09489   1.00
C6       1.15198    0.87811    1.05992   1.00
C6       1.22477    0.83880    1.06707   1.00
C6       1.36194    0.85334    0.97339   1.00
H2       1.30791    0.82364    0.96447   1.00
C6       1.34147    0.82009    0.91194   1.00
H2       1.23358    0.85725    0.95446   1.00
C6       1.21634    0.89582    0.90860   1.00
C6       1.24336    0.82910    0.89976   1.00
H2       1.33831    0.92845    0.92588   1.00
C6       1.32772    0.90566    0.86858   1.00
C6       1.28849    0.95723    0.90053   1.00
C6       1.26071    0.93095    1.09648   1.00
C6       1.19225    0.95611    1.10130   1.00
H2       1.21212    0.90158    1.12165   1.00
H2       1.14051    0.90759    1.05628   1.00
C6       1.13378    0.85372    1.02582   1.00
C6       1.13393    0.86193    1.09858   1.00
H2       1.20375    0.81782    1.05553   1.00
C6       1.26336    0.83041    1.04448   1.00
C6       1.23244    0.82642    1.11039   1.00
H2       1.35346    0.86470    1.00194   1.00
H2       1.38090    0.87486    0.95944   1.00
H2       1.37917    0.82704    0.97877   1.00
H2       1.34608    0.78971    0.92053   1.00
H2       1.32178    0.82006    0.88708   1.00
H2       1.36964    0.83097    0.90174   1.00
H2       1.18672    0.88393    0.90908   1.00
H2       1.21532    0.92298    0.92502   1.00
H2       1.22352    0.90245    0.87829   1.00
H2       1.25862    0.80431    0.91265   1.00
H2       1.21308    0.81979    0.89578   1.00
H2       1.25550    0.83493    0.87086   1.00
H2       1.30514    0.88984    0.85260   1.00
H2       1.33708    0.93027    0.85049   1.00
H2       1.35332    0.88717    0.87130   1.00
H2       1.26902    0.95349    0.87560   1.00
H2       1.27068    0.96694    0.92477   1.00
H2       1.30828    0.98126    0.89344   1.00
H2       1.26688    0.95441    1.07594   1.00
H2       1.26809    0.94185    1.12555   1.00
H2       1.28048    0.90688    1.09031   1.00
H2       1.20125    0.97098    1.12808   1.00
H2       1.19574    0.97692    1.07759   1.00
H2       1.16122    0.94985    1.10460   1.00
H2       1.10202    0.85698    1.02551   1.00
H2       1.14435    0.86370    0.99744   1.00
H2       1.14035    0.82269    1.02852   1.00
H2       1.14416    0.87808    1.12404   1.00
H2       1.10212    0.86466    1.09801   1.00
H2       1.14085    0.83109    1.10265   1.00
H2       1.28656    0.85068    1.05242   1.00
H2       1.27381    0.80074    1.04965   1.00
H2       1.25834    0.83314    1.01333   1.00
H2       1.24044    0.79557    1.11211   1.00
H2       1.25622    0.84329    1.12330   1.00
H2       1.20657    0.83020    1.12850   1.00
C4       0.99814    0.72916    1.00241   1.00
C4       0.99887    0.77088    1.00233   1.00
C3       0.99501    0.70636    1.03686   1.00
C3       1.00011    0.79384    1.03681   1.00
C3       1.00131    0.70877    0.96623   1.00
C3       0.99822    0.79114    0.96594   1.00
C2       0.99884    0.64488    1.00028   1.00
C2       1.00116    0.85512    0.99972   1.00
C3       0.99556    0.66538    1.03588   1.00
C3       1.00086    0.83481    1.03557   1.00
C3       1.00108    0.66742    0.96579   1.00
C3       1.00068    0.83238    0.96530   1.00
H1       0.99209    0.71885    1.06367   1.00
H1       1.00076    0.78148    1.06383   1.00
C5       1.00452    0.72980    0.93070   1.00
C5       0.99548    0.77020    0.93038   1.00
H1       0.99348    0.65045    1.06176   1.00
H1       1.00141    0.84990    1.06145   1.00
H1       1.00228    0.65320    0.93953   1.00
H1       1.00270    0.84632    0.93900   1.00
O3       1.01406    0.71039    0.89681   1.00
O3       0.98706    0.78901    0.89571   1.00
Si1      1.05963    0.70753    0.88315   1.00
Si1      0.94152    0.79721    0.88447   1.00
C6       1.05255    0.67462    0.84416   1.00
C6       1.07352    0.75402    0.86605   1.00
C6       1.09048    0.68747    0.91922   1.00
C6       0.90511    0.78307    0.91817   1.00
C6       0.94008    0.84802    0.87811   1.00
C6       0.93293    0.77523    0.83880   1.00
C6       1.02661    0.63806    0.85334   1.00
H2       1.03553    0.69209    0.82364   1.00
C6       1.08806    0.65853    0.82009   1.00
H2       1.04554    0.76642    0.85725   1.00
C6       1.09140    0.78366    0.89582   1.00
C6       1.10024    0.75664    0.82910   1.00
H2       1.07412    0.66169    0.92845   1.00
C6       1.13142    0.67228    0.90566   1.00
C6       1.09947    0.71151    0.95723   1.00
C6       0.90352    0.73929    0.93095   1.00
C6       0.89870    0.80775    0.95611   1.00
H2       0.87835    0.78788    0.90158   1.00
H2       0.94372    0.85949    0.90759   1.00
C6       0.97418    0.86622    0.85372   1.00
C6       0.90142    0.86607    0.86193   1.00
H2       0.94447    0.79625    0.81782   1.00
C6       0.95552    0.73664    0.83041   1.00
C6       0.88961    0.76756    0.82642   1.00
H2       0.99806    0.64654    0.86470   1.00
H2       1.04056    0.61910    0.87486   1.00
H2       1.02123    0.62083    0.82704   1.00
H2       1.07947    0.65392    0.78971   1.00
H2       1.11292    0.67822    0.82006   1.00
H2       1.09826    0.63036    0.83097   1.00
H2       1.09092    0.81328    0.88393   1.00
H2       1.07498    0.78468    0.92298   1.00
H2       1.12171    0.77648    0.90245   1.00
H2       1.08735    0.74138    0.80431   1.00
H2       1.10422    0.78692    0.81979   1.00
H2       1.12914    0.74450    0.83493   1.00
H2       1.14740    0.69486    0.88984   1.00
H2       1.14951    0.66292    0.93027   1.00
H2       1.12870    0.64668    0.88717   1.00
H2       1.12440    0.73098    0.95349   1.00
H2       1.07523    0.72932    0.96694   1.00
H2       1.10656    0.69172    0.98126   1.00
H2       0.92406    0.73312    0.95441   1.00
H2       0.87445    0.73191    0.94185   1.00
H2       0.90969    0.71952    0.90688   1.00
H2       0.87192    0.79875    0.97098   1.00
H2       0.92241    0.80426    0.97692   1.00
H2       0.89540    0.83878    0.94985   1.00
H2       0.97449    0.89798    0.85698   1.00
H2       1.00256    0.85565    0.86370   1.00
H2       0.97148    0.85965    0.82269   1.00
H2       0.87596    0.85584    0.87808   1.00
H2       0.90199    0.89788    0.86466   1.00
H2       0.89735    0.85915    0.83109   1.00
H2       0.94758    0.71344    0.85068   1.00
H2       0.95035    0.72619    0.80074   1.00
H2       0.98667    0.74166    0.83314   1.00
H2       0.88789    0.75956    0.79557   1.00
H2       0.87670    0.74378    0.84329   1.00
H2       0.87150    0.79343    0.83020   1.00
C4       1.00241    0.99814    0.72916   1.00
C4       1.00233    0.99887    0.77088   1.00
C3       1.03686    0.99501    0.70636   1.00
C3       1.03681    1.00011    0.79384   1.00
C3       0.96623    1.00131    0.70877   1.00
C3       0.96594    0.99822    0.79114   1.00
C2       1.00028    0.99884    0.64488   1.00
C2       0.99972    1.00116    0.85512   1.00
C3       1.03588    0.99556    0.66538   1.00
C3       1.03557    1.00086    0.83481   1.00
C3       0.96579    1.00108    0.66742   1.00
C3       0.96530    1.00068    0.83238   1.00
H1       1.06367    0.99209    0.71885   1.00
H1       1.06383    1.00076    0.78148   1.00
C5       0.93070    1.00452    0.72980   1.00
C5       0.93038    0.99548    0.77020   1.00
H1       1.06176    0.99348    0.65045   1.00
H1       1.06145    1.00141    0.84990   1.00
H1       0.93953    1.00228    0.65320   1.00
H1       0.93900    1.00270    0.84632   1.00
O3       0.89681    1.01406    0.71039   1.00
O3       0.89571    0.98706    0.78901   1.00
Si1      0.88315    1.05963    0.70753   1.00
Si1      0.88447    0.94152    0.79721   1.00
C6       0.84416    1.05255    0.67462   1.00
C6       0.86605    1.07352    0.75402   1.00
C6       0.91922    1.09048    0.68747   1.00
C6       0.91817    0.90511    0.78307   1.00
C6       0.87811    0.94008    0.84802   1.00
C6       0.83880    0.93293    0.77523   1.00
C6       0.85334    1.02661    0.63806   1.00
H2       0.82364    1.03553    0.69209   1.00
C6       0.82009    1.08806    0.65853   1.00
H2       0.85725    1.04554    0.76642   1.00
C6       0.89582    1.09140    0.78366   1.00
C6       0.82910    1.10024    0.75664   1.00
H2       0.92845    1.07412    0.66169   1.00
C6       0.90566    1.13142    0.67228   1.00
C6       0.95723    1.09947    0.71151   1.00
C6       0.93095    0.90352    0.73929   1.00
C6       0.95611    0.89870    0.80775   1.00
H2       0.90158    0.87835    0.78788   1.00
H2       0.90759    0.94372    0.85949   1.00
C6       0.85372    0.97418    0.86622   1.00
C6       0.86193    0.90142    0.86607   1.00
H2       0.81782    0.94447    0.79625   1.00
C6       0.83041    0.95552    0.73664   1.00
C6       0.82642    0.88961    0.76756   1.00
H2       0.86470    0.99806    0.64654   1.00
H2       0.87486    1.04056    0.61910   1.00
H2       0.82704    1.02123    0.62083   1.00
H2       0.78971    1.07947    0.65392   1.00
H2       0.82006    1.11292    0.67822   1.00
H2       0.83097    1.09826    0.63036   1.00
H2       0.88393    1.09092    0.81328   1.00
H2       0.92298    1.07498    0.78468   1.00
H2       0.90245    1.12171    0.77648   1.00
H2       0.80431    1.08735    0.74138   1.00
H2       0.81979    1.10422    0.78692   1.00
H2       0.83493    1.12914    0.74450   1.00
H2       0.88984    1.14740    0.69486   1.00
H2       0.93027    1.14951    0.66292   1.00
H2       0.88717    1.12870    0.64668   1.00
H2       0.95349    1.12440    0.73098   1.00
H2       0.96694    1.07523    0.72932   1.00
H2       0.98126    1.10656    0.69172   1.00
H2       0.95441    0.92406    0.73312   1.00
H2       0.94185    0.87445    0.73191   1.00
H2       0.90688    0.90969    0.71952   1.00
H2       0.97098    0.87192    0.79875   1.00
H2       0.97692    0.92241    0.80426   1.00
H2       0.94985    0.89540    0.83878   1.00
H2       0.85698    0.97449    0.89798   1.00
H2       0.86370    1.00256    0.85565   1.00
H2       0.82269    0.97148    0.85965   1.00
H2       0.87808    0.87596    0.85584   1.00
H2       0.86466    0.90199    0.89788   1.00
H2       0.83109    0.89735    0.85915   1.00
H2       0.85068    0.94758    0.71344   1.00
H2       0.80074    0.95035    0.72619   1.00
H2       0.83314    0.98667    0.74166   1.00
H2       0.79557    0.88789    0.75956   1.00
H2       0.84329    0.87670    0.74378   1.00
H2       0.83020    0.87150    0.79343   1.00
C4       0.50241    0.50186    1.27084   1.00
C4       0.50233    0.50113    1.22912   1.00
C3       0.53686    0.50499    1.29364   1.00
C3       0.53681    0.49989    1.20616   1.00
C3       0.46623    0.49869    1.29123   1.00
C3       0.46594    0.50178    1.20886   1.00
C2       0.50028    0.50116    1.35512   1.00
C2       0.49972    0.49884    1.14488   1.00
C3       0.53588    0.50444    1.33462   1.00
C3       0.53557    0.49914    1.16519   1.00
C3       0.46579    0.49892    1.33258   1.00
C3       0.46530    0.49932    1.16762   1.00
H1       0.56367    0.50791    1.28115   1.00
H1       0.56383    0.49924    1.21852   1.00
C5       0.43070    0.49548    1.27020   1.00
C5       0.43038    0.50452    1.22980   1.00
H1       0.56176    0.50652    1.34955   1.00
H1       0.56145    0.49859    1.15010   1.00
H1       0.43953    0.49772    1.34680   1.00
H1       0.43900    0.49730    1.15368   1.00
O3       0.39681    0.48594    1.28961   1.00
O3       0.39571    0.51294    1.21099   1.00
Si1      0.38315    0.44037    1.29247   1.00
Si1      0.38447    0.55848    1.20279   1.00
C6       0.34416    0.44745    1.32538   1.00
C6       0.36605    0.42648    1.24598   1.00
C6       0.41922    0.40952    1.31253   1.00
C6       0.41817    0.59489    1.21693   1.00
C6       0.37811    0.55992    1.15198   1.00
C6       0.33880    0.56707    1.22477   1.00
C6       0.35334    0.47339    1.36194   1.00
H2       0.32364    0.46447    1.30791   1.00
C6       0.32009    0.41194    1.34147   1.00
H2       0.35725    0.45446    1.23358   1.00
C6       0.39582    0.40860    1.21634   1.00
C6       0.32910    0.39976    1.24336   1.00
H2       0.42845    0.42588    1.33831   1.00
C6       0.40566    0.36858    1.32772   1.00
C6       0.45723    0.40053    1.28849   1.00
C6       0.43095    0.59648    1.26071   1.00
C6       0.45611    0.60130    1.19225   1.00
H2       0.40158    0.62165    1.21212   1.00
H2       0.40759    0.55628    1.14051   1.00
C6       0.35372    0.52582    1.13378   1.00
C6       0.36193    0.59858    1.13393   1.00
H2       0.31782    0.55553    1.20375   1.00
C6       0.33041    0.54448    1.26336   1.00
C6       0.32642    0.61039    1.23244   1.00
H2       0.36470    0.50194    1.35346   1.00
H2       0.37486    0.45944    1.38090   1.00
H2       0.32704    0.47877    1.37917   1.00
H2       0.28971    0.42053    1.34608   1.00
H2       0.32006    0.38708    1.32178   1.00
H2       0.33097    0.40174    1.36964   1.00
H2       0.38393    0.40908    1.18672   1.00
H2       0.42298    0.42502    1.21532   1.00
H2       0.40245    0.37829    1.22352   1.00
H2       0.30431    0.41265    1.25862   1.00
H2       0.31979    0.39578    1.21308   1.00
H2       0.33493    0.37086    1.25550   1.00
H2       0.38984    0.35260    1.30514   1.00
H2       0.43027    0.35049    1.33708   1.00
H2       0.38717    0.37130    1.35332   1.00
H2       0.45349    0.37560    1.26902   1.00
H2       0.46694    0.42477    1.27068   1.00
H2       0.48126    0.39344    1.30828   1.00
H2       0.45441    0.57594    1.26688   1.00
H2       0.44185    0.62555    1.26809   1.00
H2       0.40688    0.59031    1.28048   1.00
H2       0.47098    0.62808    1.20125   1.00
H2       0.47692    0.57759    1.19574   1.00
H2       0.44985    0.60460    1.16122   1.00
H2       0.35698    0.52551    1.10202   1.00
H2       0.36370    0.49744    1.14435   1.00
H2       0.32269    0.52852    1.14035   1.00
H2       0.37808    0.62404    1.14416   1.00
H2       0.36466    0.59801    1.10212   1.00
H2       0.33109    0.60265    1.14085   1.00
H2       0.35068    0.55242    1.28656   1.00
H2       0.30074    0.54965    1.27381   1.00
H2       0.33314    0.51333    1.25834   1.00
H2       0.29557    0.61211    1.24044   1.00
H2       0.34329    0.62330    1.25622   1.00
H2       0.33020    0.62850    1.20657   1.00
C4       0.50186    0.77084    1.00241   1.00
C4       0.50113    0.72912    1.00233   1.00
C3       0.50499    0.79364    1.03686   1.00
C3       0.49989    0.70616    1.03681   1.00
C3       0.49869    0.79123    0.96623   1.00
C3       0.50178    0.70886    0.96594   1.00
C2       0.50116    0.85512    1.00028   1.00
C2       0.49884    0.64488    0.99972   1.00
C3       0.50444    0.83462    1.03588   1.00
C3       0.49914    0.66519    1.03557   1.00
C3       0.49892    0.83258    0.96579   1.00
C3       0.49932    0.66762    0.96530   1.00
H1       0.50791    0.78115    1.06367   1.00
H1       0.49924    0.71852    1.06383   1.00
C5       0.49548    0.77020    0.93070   1.00
C5       0.50452    0.72980    0.93038   1.00
H1       0.50652    0.84955    1.06176   1.00
H1       0.49859    0.65010    1.06145   1.00
H1       0.49772    0.84680    0.93953   1.00
H1       0.49730    0.65368    0.93900   1.00
O3       0.48594    0.78961    0.89681   1.00
O3       0.51294    0.71099    0.89571   1.00
Si1      0.44037    0.79247    0.88315   1.00
Si1      0.55848    0.70279    0.88447   1.00
C6       0.44745    0.82538    0.84416   1.00
C6       0.42648    0.74598    0.86605   1.00
C6       0.40952    0.81253    0.91922   1.00
C6       0.59489    0.71693    0.91817   1.00
C6       0.55992    0.65198    0.87811   1.00
C6       0.56707    0.72477    0.83880   1.00
C6       0.47339    0.86194    0.85334   1.00
H2       0.46447    0.80791    0.82364   1.00
C6       0.41194    0.84147    0.82009   1.00
H2       0.45446    0.73358    0.85725   1.00
C6       0.40860    0.71634    0.89582   1.00
C6       0.39976    0.74336    0.82910   1.00
H2       0.42588    0.83831    0.92845   1.00
C6       0.36858    0.82772    0.90566   1.00
C6       0.40053    0.78849    0.95723   1.00
C6       0.59648    0.76071    0.93095   1.00
C6       0.60130    0.69225    0.95611   1.00
H2       0.62165    0.71212    0.90158   1.00
H2       0.55628    0.64051    0.90759   1.00
C6       0.52582    0.63378    0.85372   1.00
C6       0.59858    0.63393    0.86193   1.00
H2       0.55553    0.70375    0.81782   1.00
C6       0.54448    0.76336    0.83041   1.00
C6       0.61039    0.73244    0.82642   1.00
H2       0.50194    0.85346    0.86470   1.00
H2       0.45944    0.88090    0.87486   1.00
H2       0.47877    0.87917    0.82704   1.00
H2       0.42053    0.84608    0.78971   1.00
H2       0.38708    0.82178    0.82006   1.00
H2       0.40174    0.86964    0.83097   1.00
H2       0.40908    0.68672    0.88393   1.00
H2       0.42502    0.71532    0.92298   1.00
H2       0.37829    0.72352    0.90245   1.00
H2       0.41265    0.75862    0.80431   1.00
H2       0.39578    0.71308    0.81979   1.00
H2       0.37086    0.75550    0.83493   1.00
H2       0.35260    0.80514    0.88984   1.00
H2       0.35049    0.83708    0.93027   1.00
H2       0.37130    0.85332    0.88717   1.00
H2       0.37560    0.76902    0.95349   1.00
H2       0.42477    0.77068    0.96694   1.00
H2       0.39344    0.80828    0.98126   1.00
H2       0.57594    0.76688    0.95441   1.00
H2       0.62555    0.76809    0.94185   1.00
H2       0.59031    0.78048    0.90688   1.00
H2       0.62808    0.70125    0.97098   1.00
H2       0.57759    0.69574    0.97692   1.00
H2       0.60460    0.66122    0.94985   1.00
H2       0.52551    0.60202    0.85698   1.00
H2       0.49744    0.64435    0.86370   1.00
H2       0.52852    0.64035    0.82269   1.00
H2       0.62404    0.64416    0.87808   1.00
H2       0.59801    0.60212    0.86466   1.00
H2       0.60265    0.64085    0.83109   1.00
H2       0.55242    0.78656    0.85068   1.00
H2       0.54965    0.77381    0.80074   1.00
H2       0.51333    0.75834    0.83314   1.00
H2       0.61211    0.74044    0.79557   1.00
H2       0.62330    0.75622    0.84329   1.00
H2       0.62850    0.70657    0.83020   1.00
C4       0.22916    0.50241    0.99814   1.00
C4       0.27088    0.50233    0.99887   1.00
C3       0.20636    0.53686    0.99501   1.00
C3       0.29384    0.53681    1.00011   1.00
C3       0.20877    0.46623    1.00131   1.00
C3       0.29114    0.46594    0.99822   1.00
C2       0.14488    0.50028    0.99884   1.00
C2       0.35512    0.49972    1.00116   1.00
C3       0.16538    0.53588    0.99556   1.00
C3       0.33481    0.53557    1.00086   1.00
C3       0.16742    0.46579    1.00108   1.00
C3       0.33238    0.46530    1.00068   1.00
H1       0.21885    0.56367    0.99209   1.00
H1       0.28148    0.56383    1.00076   1.00
C5       0.22980    0.43070    1.00452   1.00
C5       0.27020    0.43038    0.99548   1.00
H1       0.15045    0.56176    0.99348   1.00
H1       0.34990    0.56145    1.00141   1.00
H1       0.15320    0.43953    1.00228   1.00
H1       0.34632    0.43900    1.00270   1.00
O3       0.21039    0.39681    1.01406   1.00
O3       0.28901    0.39571    0.98706   1.00
Si1      0.20753    0.38315    1.05963   1.00
Si1      0.29721    0.38447    0.94152   1.00
C6       0.17462    0.34416    1.05255   1.00
C6       0.25402    0.36605    1.07352   1.00
C6       0.18747    0.41922    1.09048   1.00
C6       0.28307    0.41817    0.90511   1.00
C6       0.34802    0.37811    0.94008   1.00
C6       0.27523    0.33880    0.93293   1.00
C6       0.13806    0.35334    1.02661   1.00
H2       0.19209    0.32364    1.03553   1.00
C6       0.15853    0.32009    1.08806   1.00
H2       0.26642    0.35725    1.04554   1.00
C6       0.28366    0.39582    1.09140   1.00
C6       0.25664    0.32910    1.10024   1.00
H2       0.16169    0.42845    1.07412   1.00
C6       0.17228    0.40566    1.13142   1.00
C6       0.21151    0.45723    1.09947   1.00
C6       0.23929    0.43095    0.90352   1.00
C6       0.30775    0.45611    0.89870   1.00
H2       0.28788    0.40158    0.87835   1.00
H2       0.35949    0.40759    0.94372   1.00
C6       0.36622    0.35372    0.97418   1.00
C6       0.36607    0.36193    0.90142   1.00
H2       0.29625    0.31782    0.94447   1.00
C6       0.23664    0.33041    0.95552   1.00
C6       0.26756    0.32642    0.88961   1.00
H2       0.14654    0.36470    0.99806   1.00
H2       0.11910    0.37486    1.04056   1.00
H2       0.12083    0.32704    1.02123   1.00
H2       0.15392    0.28971    1.07947   1.00
H2       0.17822    0.32006    1.11292   1.00
H2       0.13036    0.33097    1.09826   1.00
H2       0.31328    0.38393    1.09092   1.00
H2       0.28468    0.42298    1.07498   1.00
H2       0.27648    0.40245    1.12171   1.00
H2       0.24138    0.30431    1.08735   1.00
H2       0.28692    0.31979    1.10422   1.00
H2       0.24450    0.33493    1.12914   1.00
H2       0.19486    0.38984    1.14740   1.00
H2       0.16292    0.43027    1.14951   1.00
H2       0.14668    0.38717    1.12870   1.00
H2       0.23098    0.45349    1.12440   1.00
H2       0.22932    0.46694    1.07523   1.00
H2       0.19172    0.48126    1.10656   1.00
H2       0.23312    0.45441    0.92406   1.00
H2       0.23191    0.44185    0.87445   1.00
H2       0.21952    0.40688    0.90969   1.00
H2       0.29875    0.47098    0.87192   1.00
H2       0.30426    0.47692    0.92241   1.00
H2       0.33878    0.44985    0.89540   1.00
H2       0.39798    0.35698    0.97449   1.00
H2       0.35565    0.36370    1.00256   1.00
H2       0.35965    0.32269    0.97148   1.00
H2       0.35584    0.37808    0.87596   1.00
H2       0.39788    0.36466    0.90199   1.00
H2       0.35915    0.33109    0.89735   1.00
H2       0.21344    0.35068    0.94758   1.00
H2       0.22619    0.30074    0.95035   1.00
H2       0.24166    0.33314    0.98667   1.00
H2       0.25956    0.29557    0.88789   1.00
H2       0.24378    0.34329    0.87670   1.00
H2       0.29343    0.33020    0.87150   1.00
C4       0.77084    0.50241    1.00186   1.00
C4       0.72912    0.50233    1.00113   1.00
C3       0.79364    0.53686    1.00499   1.00
C3       0.70616    0.53681    0.99989   1.00
C3       0.79123    0.46623    0.99869   1.00
C3       0.70886    0.46594    1.00178   1.00
C2       0.85512    0.50028    1.00116   1.00
C2       0.64488    0.49972    0.99884   1.00
C3       0.83462    0.53588    1.00444   1.00
C3       0.66519    0.53557    0.99914   1.00
C3       0.83258    0.46579    0.99892   1.00
C3       0.66762    0.46530    0.99932   1.00
H1       0.78115    0.56367    1.00791   1.00
H1       0.71852    0.56383    0.99924   1.00
C5       0.77020    0.43070    0.99548   1.00
C5       0.72980    0.43038    1.00452   1.00
H1       0.84955    0.56176    1.00652   1.00
H1       0.65010    0.56145    0.99859   1.00
H1       0.84680    0.43953    0.99772   1.00
H1       0.65368    0.43900    0.99730   1.00
O3       0.78961    0.39681    0.98594   1.00
O3       0.71099    0.39571    1.01294   1.00
Si1      0.79247    0.38315    0.94037   1.00
Si1      0.70279    0.38447    1.05848   1.00
C6       0.82538    0.34416    0.94745   1.00
C6       0.74598    0.36605    0.92648   1.00
C6       0.81253    0.41922    0.90952   1.00
C6       0.71693    0.41817    1.09489   1.00
C6       0.65198    0.37811    1.05992   1.00
C6       0.72477    0.33880    1.06707   1.00
C6       0.86194    0.35334    0.97339   1.00
H2       0.80791    0.32364    0.96447   1.00
C6       0.84147    0.32009    0.91194   1.00
H2       0.73358    0.35725    0.95446   1.00
C6       0.71634    0.39582    0.90860   1.00
C6       0.74336    0.32910    0.89976   1.00
H2       0.83831    0.42845    0.92588   1.00
C6       0.82772    0.40566    0.86858   1.00
C6       0.78849    0.45723    0.90053   1.00
C6       0.76071    0.43095    1.09648   1.00
C6       0.69225    0.45611    1.10130   1.00
H2       0.71212    0.40158    1.12165   1.00
H2       0.64051    0.40759    1.05628   1.00
C6       0.63378    0.35372    1.02582   1.00
C6       0.63393    0.36193    1.09858   1.00
H2       0.70375    0.31782    1.05553   1.00
C6       0.76336    0.33041    1.04448   1.00
C6       0.73244    0.32642    1.11039   1.00
H2       0.85346    0.36470    1.00194   1.00
H2       0.88090    0.37486    0.95944   1.00
H2       0.87917    0.32704    0.97877   1.00
H2       0.84608    0.28971    0.92053   1.00
H2       0.82178    0.32006    0.88708   1.00
H2       0.86964    0.33097    0.90174   1.00
H2       0.68672    0.38393    0.90908   1.00
H2       0.71532    0.42298    0.92502   1.00
H2       0.72352    0.40245    0.87829   1.00
H2       0.75862    0.30431    0.91265   1.00
H2       0.71308    0.31979    0.89578   1.00
H2       0.75550    0.33493    0.87086   1.00
H2       0.80514    0.38984    0.85260   1.00
H2       0.83708    0.43027    0.85049   1.00
H2       0.85332    0.38717    0.87130   1.00
H2       0.76902    0.45349    0.87560   1.00
H2       0.77068    0.46694    0.92477   1.00
H2       0.80828    0.48126    0.89344   1.00
H2       0.76688    0.45441    1.07594   1.00
H2       0.76809    0.44185    1.12555   1.00
H2       0.78048    0.40688    1.09031   1.00
H2       0.70125    0.47098    1.12808   1.00
H2       0.69574    0.47692    1.07759   1.00
H2       0.66122    0.44985    1.10460   1.00
H2       0.60202    0.35698    1.02551   1.00
H2       0.64435    0.36370    0.99744   1.00
H2       0.64035    0.32269    1.02852   1.00
H2       0.64416    0.37808    1.12404   1.00
H2       0.60212    0.36466    1.09801   1.00
H2       0.64085    0.33109    1.10265   1.00
H2       0.78656    0.35068    1.05242   1.00
H2       0.77381    0.30074    1.04965   1.00
H2       0.75834    0.33314    1.01333   1.00
H2       0.74044    0.29557    1.11211   1.00
H2       0.75622    0.34329    1.12330   1.00
H2       0.70657    0.33020    1.12850   1.00
C4       0.49814    0.22916    1.00241   1.00
C4       0.49887    0.27088    1.00233   1.00
C3       0.49501    0.20636    1.03686   1.00
C3       0.50011    0.29384    1.03681   1.00
C3       0.50131    0.20877    0.96623   1.00
C3       0.49822    0.29114    0.96594   1.00
C2       0.49884    0.14488    1.00028   1.00
C2       0.50116    0.35512    0.99972   1.00
C3       0.49556    0.16538    1.03588   1.00
C3       0.50086    0.33481    1.03557   1.00
C3       0.50108    0.16742    0.96579   1.00
C3       0.50068    0.33238    0.96530   1.00
H1       0.49209    0.21885    1.06367   1.00
H1       0.50076    0.28148    1.06383   1.00
C5       0.50452    0.22980    0.93070   1.00
C5       0.49548    0.27020    0.93038   1.00
H1       0.49348    0.15045    1.06176   1.00
H1       0.50141    0.34990    1.06145   1.00
H1       0.50228    0.15320    0.93953   1.00
H1       0.50270    0.34632    0.93900   1.00
O3       0.51406    0.21039    0.89681   1.00
O3       0.48706    0.28901    0.89571   1.00
Si1      0.55963    0.20753    0.88315   1.00
Si1      0.44152    0.29721    0.88447   1.00
C6       0.55255    0.17462    0.84416   1.00
C6       0.57352    0.25402    0.86605   1.00
C6       0.59048    0.18747    0.91922   1.00
C6       0.40511    0.28307    0.91817   1.00
C6       0.44008    0.34802    0.87811   1.00
C6       0.43293    0.27523    0.83880   1.00
C6       0.52661    0.13806    0.85334   1.00
H2       0.53553    0.19209    0.82364   1.00
C6       0.58806    0.15853    0.82009   1.00
H2       0.54554    0.26642    0.85725   1.00
C6       0.59140    0.28366    0.89582   1.00
C6       0.60024    0.25664    0.82910   1.00
H2       0.57412    0.16169    0.92845   1.00
C6       0.63142    0.17228    0.90566   1.00
C6       0.59947    0.21151    0.95723   1.00
C6       0.40352    0.23929    0.93095   1.00
C6       0.39870    0.30775    0.95611   1.00
H2       0.37835    0.28788    0.90158   1.00
H2       0.44372    0.35949    0.90759   1.00
C6       0.47418    0.36622    0.85372   1.00
C6       0.40142    0.36607    0.86193   1.00
H2       0.44447    0.29625    0.81782   1.00
C6       0.45552    0.23664    0.83041   1.00
C6       0.38961    0.26756    0.82642   1.00
H2       0.49806    0.14654    0.86470   1.00
H2       0.54056    0.11910    0.87486   1.00
H2       0.52123    0.12083    0.82704   1.00
H2       0.57947    0.15392    0.78971   1.00
H2       0.61292    0.17822    0.82006   1.00
H2       0.59826    0.13036    0.83097   1.00
H2       0.59092    0.31328    0.88393   1.00
H2       0.57498    0.28468    0.92298   1.00
H2       0.62171    0.27648    0.90245   1.00
H2       0.58735    0.24138    0.80431   1.00
H2       0.60422    0.28692    0.81979   1.00
H2       0.62914    0.24450    0.83493   1.00
H2       0.64740    0.19486    0.88984   1.00
H2       0.64951    0.16292    0.93027   1.00
H2       0.62870    0.14668    0.88717   1.00
H2       0.62440    0.23098    0.95349   1.00
H2       0.57523    0.22932    0.96694   1.00
H2       0.60656    0.19172    0.98126   1.00
H2       0.42406    0.23312    0.95441   1.00
H2       0.37445    0.23191    0.94185   1.00
H2       0.40969    0.21952    0.90688   1.00
H2       0.37192    0.29875    0.97098   1.00
H2       0.42241    0.30426    0.97692   1.00
H2       0.39540    0.33878    0.94985   1.00
H2       0.47449    0.39798    0.85698   1.00
H2       0.50256    0.35565    0.86370   1.00
H2       0.47148    0.35965    0.82269   1.00
H2       0.37596    0.35584    0.87808   1.00
H2       0.40199    0.39788    0.86466   1.00
H2       0.39735    0.35915    0.83109   1.00
H2       0.44758    0.21344    0.85068   1.00
H2       0.45035    0.22619    0.80074   1.00
H2       0.48667    0.24166    0.83314   1.00
H2       0.38789    0.25956    0.79557   1.00
H2       0.37670    0.24378    0.84329   1.00
H2       0.37150    0.29343    0.83020   1.00
C4       0.50241    0.49814    0.72916   1.00
C4       0.50233    0.49887    0.77088   1.00
C3       0.53686    0.49501    0.70636   1.00
C3       0.53681    0.50011    0.79384   1.00
C3       0.46623    0.50131    0.70877   1.00
C3       0.46594    0.49822    0.79114   1.00
C2       0.50028    0.49884    0.64488   1.00
C2       0.49972    0.50116    0.85512   1.00
C3       0.53588    0.49556    0.66538   1.00
C3       0.53557    0.50086    0.83481   1.00
C3       0.46579    0.50108    0.66742   1.00
C3       0.46530    0.50068    0.83238   1.00
H1       0.56367    0.49209    0.71885   1.00
H1       0.56383    0.50076    0.78148   1.00
C5       0.43070    0.50452    0.72980   1.00
C5       0.43038    0.49548    0.77020   1.00
H1       0.56176    0.49348    0.65045   1.00
H1       0.56145    0.50141    0.84990   1.00
H1       0.43953    0.50228    0.65320   1.00
H1       0.43900    0.50270    0.84632   1.00
O3       0.39681    0.51406    0.71039   1.00
O3       0.39571    0.48706    0.78901   1.00
Si1      0.38315    0.55963    0.70753   1.00
Si1      0.38447    0.44152    0.79721   1.00
C6       0.34416    0.55255    0.67462   1.00
C6       0.36605    0.57352    0.75402   1.00
C6       0.41922    0.59048    0.68747   1.00
C6       0.41817    0.40511    0.78307   1.00
C6       0.37811    0.44008    0.84802   1.00
C6       0.33880    0.43293    0.77523   1.00
C6       0.35334    0.52661    0.63806   1.00
H2       0.32364    0.53553    0.69209   1.00
C6       0.32009    0.58806    0.65853   1.00
H2       0.35725    0.54554    0.76642   1.00
C6       0.39582    0.59140    0.78366   1.00
C6       0.32910    0.60024    0.75664   1.00
H2       0.42845    0.57412    0.66169   1.00
C6       0.40566    0.63142    0.67228   1.00
C6       0.45723    0.59947    0.71151   1.00
C6       0.43095    0.40352    0.73929   1.00
C6       0.45611    0.39870    0.80775   1.00
H2       0.40158    0.37835    0.78788   1.00
H2       0.40759    0.44372    0.85949   1.00
C6       0.35372    0.47418    0.86622   1.00
C6       0.36193    0.40142    0.86607   1.00
H2       0.31782    0.44447    0.79625   1.00
C6       0.33041    0.45552    0.73664   1.00
C6       0.32642    0.38961    0.76756   1.00
H2       0.36470    0.49806    0.64654   1.00
H2       0.37486    0.54056    0.61910   1.00
H2       0.32704    0.52123    0.62083   1.00
H2       0.28971    0.57947    0.65392   1.00
H2       0.32006    0.61292    0.67822   1.00
H2       0.33097    0.59826    0.63036   1.00
H2       0.38393    0.59092    0.81328   1.00
H2       0.42298    0.57498    0.78468   1.00
H2       0.40245    0.62171    0.77648   1.00
H2       0.30431    0.58735    0.74138   1.00
H2       0.31979    0.60422    0.78692   1.00
H2       0.33493    0.62914    0.74450   1.00
H2       0.38984    0.64740    0.69486   1.00
H2       0.43027    0.64951    0.66292   1.00
H2       0.38717    0.62870    0.64668   1.00
H2       0.45349    0.62440    0.73098   1.00
H2       0.46694    0.57523    0.72932   1.00
H2       0.48126    0.60656    0.69172   1.00
H2       0.45441    0.42406    0.73312   1.00
H2       0.44185    0.37445    0.73191   1.00
H2       0.40688    0.40969    0.71952   1.00
H2       0.47098    0.37192    0.79875   1.00
H2       0.47692    0.42241    0.80426   1.00
H2       0.44985    0.39540    0.83878   1.00
H2       0.35698    0.47449    0.89798   1.00
H2       0.36370    0.50256    0.85565   1.00
H2       0.32269    0.47148    0.85965   1.00
H2       0.37808    0.37596    0.85584   1.00
H2       0.36466    0.40199    0.89788   1.00
H2       0.33109    0.39735    0.85915   1.00
H2       0.35068    0.44758    0.71344   1.00
H2       0.30074    0.45035    0.72619   1.00
H2       0.33314    0.48667    0.74166   1.00
H2       0.29557    0.38789    0.75956   1.00
H2       0.34329    0.37670    0.74378   1.00
H2       0.33020    0.37150    0.79343   1.00
C4       0.50241    1.00186    0.77084   1.00
C4       0.50233    1.00113    0.72912   1.00
C3       0.53686    1.00499    0.79364   1.00
C3       0.53681    0.99989    0.70616   1.00
C3       0.46623    0.99869    0.79123   1.00
C3       0.46594    1.00178    0.70886   1.00
C2       0.50028    1.00116    0.85512   1.00
C2       0.49972    0.99884    0.64488   1.00
C3       0.53588    1.00444    0.83462   1.00
C3       0.53557    0.99914    0.66519   1.00
C3       0.46579    0.99892    0.83258   1.00
C3       0.46530    0.99932    0.66762   1.00
H1       0.56367    1.00791    0.78115   1.00
H1       0.56383    0.99924    0.71852   1.00
C5       0.43070    0.99548    0.77020   1.00
C5       0.43038    1.00452    0.72980   1.00
H1       0.56176    1.00652    0.84955   1.00
H1       0.56145    0.99859    0.65010   1.00
H1       0.43953    0.99772    0.84680   1.00
H1       0.43900    0.99730    0.65368   1.00
O3       0.39681    0.98594    0.78961   1.00
O3       0.39571    1.01294    0.71099   1.00
Si1      0.38315    0.94037    0.79247   1.00
Si1      0.38447    1.05848    0.70279   1.00
C6       0.34416    0.94745    0.82538   1.00
C6       0.36605    0.92648    0.74598   1.00
C6       0.41922    0.90952    0.81253   1.00
C6       0.41817    1.09489    0.71693   1.00
C6       0.37811    1.05992    0.65198   1.00
C6       0.33880    1.06707    0.72477   1.00
C6       0.35334    0.97339    0.86194   1.00
H2       0.32364    0.96447    0.80791   1.00
C6       0.32009    0.91194    0.84147   1.00
H2       0.35725    0.95446    0.73358   1.00
C6       0.39582    0.90860    0.71634   1.00
C6       0.32910    0.89976    0.74336   1.00
H2       0.42845    0.92588    0.83831   1.00
C6       0.40566    0.86858    0.82772   1.00
C6       0.45723    0.90053    0.78849   1.00
C6       0.43095    1.09648    0.76071   1.00
C6       0.45611    1.10130    0.69225   1.00
H2       0.40158    1.12165    0.71212   1.00
H2       0.40759    1.05628    0.64051   1.00
C6       0.35372    1.02582    0.63378   1.00
C6       0.36193    1.09858    0.63393   1.00
H2       0.31782    1.05553    0.70375   1.00
C6       0.33041    1.04448    0.76336   1.00
C6       0.32642    1.11039    0.73244   1.00
H2       0.36470    1.00194    0.85346   1.00
H2       0.37486    0.95944    0.88090   1.00
H2       0.32704    0.97877    0.87917   1.00
H2       0.28971    0.92053    0.84608   1.00
H2       0.32006    0.88708    0.82178   1.00
H2       0.33097    0.90174    0.86964   1.00
H2       0.38393    0.90908    0.68672   1.00
H2       0.42298    0.92502    0.71532   1.00
H2       0.40245    0.87829    0.72352   1.00
H2       0.30431    0.91265    0.75862   1.00
H2       0.31979    0.89578    0.71308   1.00
H2       0.33493    0.87086    0.75550   1.00
H2       0.38984    0.85260    0.80514   1.00
H2       0.43027    0.85049    0.83708   1.00
H2       0.38717    0.87130    0.85332   1.00
H2       0.45349    0.87560    0.76902   1.00
H2       0.46694    0.92477    0.77068   1.00
H2       0.48126    0.89344    0.80828   1.00
H2       0.45441    1.07594    0.76688   1.00
H2       0.44185    1.12555    0.76809   1.00
H2       0.40688    1.09031    0.78048   1.00
H2       0.47098    1.12808    0.70125   1.00
H2       0.47692    1.07759    0.69574   1.00
H2       0.44985    1.10460    0.66122   1.00
H2       0.35698    1.02551    0.60202   1.00
H2       0.36370    0.99744    0.64435   1.00
H2       0.32269    1.02852    0.64035   1.00
H2       0.37808    1.12404    0.64416   1.00
H2       0.36466    1.09801    0.60212   1.00
H2       0.33109    1.10265    0.64085   1.00
H2       0.35068    1.05242    0.78656   1.00
H2       0.30074    1.04965    0.77381   1.00
H2       0.33314    1.01333    0.75834   1.00
H2       0.29557    1.11211    0.74044   1.00
H2       0.34329    1.12330    0.75622   1.00
H2       0.33020    1.12850    0.70657   1.00
C4       0.50186    1.27084    0.50241   1.00
C4       0.50113    1.22912    0.50233   1.00
C3       0.50499    1.29364    0.53686   1.00
C3       0.49989    1.20616    0.53681   1.00
C3       0.49869    1.29123    0.46623   1.00
C3       0.50178    1.20886    0.46594   1.00
C2       0.50116    1.35512    0.50028   1.00
C2       0.49884    1.14488    0.49972   1.00
C3       0.50444    1.33462    0.53588   1.00
C3       0.49914    1.16519    0.53557   1.00
C3       0.49892    1.33258    0.46579   1.00
C3       0.49932    1.16762    0.46530   1.00
H1       0.50791    1.28115    0.56367   1.00
H1       0.49924    1.21852    0.56383   1.00
C5       0.49548    1.27020    0.43070   1.00
C5       0.50452    1.22980    0.43038   1.00
H1       0.50652    1.34955    0.56176   1.00
H1       0.49859    1.15010    0.56145   1.00
H1       0.49772    1.34680    0.43953   1.00
H1       0.49730    1.15368    0.43900   1.00
O3       0.48594    1.28961    0.39681   1.00
O3       0.51294    1.21099    0.39571   1.00
Si1      0.44037    1.29247    0.38315   1.00
Si1      0.55848    1.20279    0.38447   1.00
C6       0.44745    1.32538    0.34416   1.00
C6       0.42648    1.24598    0.36605   1.00
C6       0.40952    1.31253    0.41922   1.00
C6       0.59489    1.21693    0.41817   1.00
C6       0.55992    1.15198    0.37811   1.00
C6       0.56707    1.22477    0.33880   1.00
C6       0.47339    1.36194    0.35334   1.00
H2       0.46447    1.30791    0.32364   1.00
C6       0.41194    1.34147    0.32009   1.00
H2       0.45446    1.23358    0.35725   1.00
C6       0.40860    1.21634    0.39582   1.00
C6       0.39976    1.24336    0.32910   1.00
H2       0.42588    1.33831    0.42845   1.00
C6       0.36858    1.32772    0.40566   1.00
C6       0.40053    1.28849    0.45723   1.00
C6       0.59648    1.26071    0.43095   1.00
C6       0.60130    1.19225    0.45611   1.00
H2       0.62165    1.21212    0.40158   1.00
H2       0.55628    1.14051    0.40759   1.00
C6       0.52582    1.13378    0.35372   1.00
C6       0.59858    1.13393    0.36193   1.00
H2       0.55553    1.20375    0.31782   1.00
C6       0.54448    1.26336    0.33041   1.00
C6       0.61039    1.23244    0.32642   1.00
H2       0.50194    1.35346    0.36470   1.00
H2       0.45944    1.38090    0.37486   1.00
H2       0.47877    1.37917    0.32704   1.00
H2       0.42053    1.34608    0.28971   1.00
H2       0.38708    1.32178    0.32006   1.00
H2       0.40174    1.36964    0.33097   1.00
H2       0.40908    1.18672    0.38393   1.00
H2       0.42502    1.21532    0.42298   1.00
H2       0.37829    1.22352    0.40245   1.00
H2       0.41265    1.25862    0.30431   1.00
H2       0.39578    1.21308    0.31979   1.00
H2       0.37086    1.25550    0.33493   1.00
H2       0.35260    1.30514    0.38984   1.00
H2       0.35049    1.33708    0.43027   1.00
H2       0.37130    1.35332    0.38717   1.00
H2       0.37560    1.26902    0.45349   1.00
H2       0.42477    1.27068    0.46694   1.00
H2       0.39344    1.30828    0.48126   1.00
H2       0.57594    1.26688    0.45441   1.00
H2       0.62555    1.26809    0.44185   1.00
H2       0.59031    1.28048    0.40688   1.00
H2       0.62808    1.20125    0.47098   1.00
H2       0.57759    1.19574    0.47692   1.00
H2       0.60460    1.16122    0.44985   1.00
H2       0.52551    1.10202    0.35698   1.00
H2       0.49744    1.14435    0.36370   1.00
H2       0.52852    1.14035    0.32269   1.00
H2       0.62404    1.14416    0.37808   1.00
H2       0.59801    1.10212    0.36466   1.00
H2       0.60265    1.14085    0.33109   1.00
H2       0.55242    1.28656    0.35068   1.00
H2       0.54965    1.27381    0.30074   1.00
H2       0.51333    1.25834    0.33314   1.00
H2       0.61211    1.24044    0.29557   1.00
H2       0.62330    1.25622    0.34329   1.00
H2       0.62850    1.20657    0.33020   1.00
C4       0.22916    1.00241    0.49814   1.00
C4       0.27088    1.00233    0.49887   1.00
C3       0.20636    1.03686    0.49501   1.00
C3       0.29384    1.03681    0.50011   1.00
C3       0.20877    0.96623    0.50131   1.00
C3       0.29114    0.96594    0.49822   1.00
C2       0.14488    1.00028    0.49884   1.00
C2       0.35512    0.99972    0.50116   1.00
C3       0.16538    1.03588    0.49556   1.00
C3       0.33481    1.03557    0.50086   1.00
C3       0.16742    0.96579    0.50108   1.00
C3       0.33238    0.96530    0.50068   1.00
H1       0.21885    1.06367    0.49209   1.00
H1       0.28148    1.06383    0.50076   1.00
C5       0.22980    0.93070    0.50452   1.00
C5       0.27020    0.93038    0.49548   1.00
H1       0.15045    1.06176    0.49348   1.00
H1       0.34990    1.06145    0.50141   1.00
H1       0.15320    0.93953    0.50228   1.00
H1       0.34632    0.93900    0.50270   1.00
O3       0.21039    0.89681    0.51406   1.00
O3       0.28901    0.89571    0.48706   1.00
Si1      0.20753    0.88315    0.55963   1.00
Si1      0.29721    0.88447    0.44152   1.00
C6       0.17462    0.84416    0.55255   1.00
C6       0.25402    0.86605    0.57352   1.00
C6       0.18747    0.91922    0.59048   1.00
C6       0.28307    0.91817    0.40511   1.00
C6       0.34802    0.87811    0.44008   1.00
C6       0.27523    0.83880    0.43293   1.00
C6       0.13806    0.85334    0.52661   1.00
H2       0.19209    0.82364    0.53553   1.00
C6       0.15853    0.82009    0.58806   1.00
H2       0.26642    0.85725    0.54554   1.00
C6       0.28366    0.89582    0.59140   1.00
C6       0.25664    0.82910    0.60024   1.00
H2       0.16169    0.92845    0.57412   1.00
C6       0.17228    0.90566    0.63142   1.00
C6       0.21151    0.95723    0.59947   1.00
C6       0.23929    0.93095    0.40352   1.00
C6       0.30775    0.95611    0.39870   1.00
H2       0.28788    0.90158    0.37835   1.00
H2       0.35949    0.90759    0.44372   1.00
C6       0.36622    0.85372    0.47418   1.00
C6       0.36607    0.86193    0.40142   1.00
H2       0.29625    0.81782    0.44447   1.00
C6       0.23664    0.83041    0.45552   1.00
C6       0.26756    0.82642    0.38961   1.00
H2       0.14654    0.86470    0.49806   1.00
H2       0.11910    0.87486    0.54056   1.00
H2       0.12083    0.82704    0.52123   1.00
H2       0.15392    0.78971    0.57947   1.00
H2       0.17822    0.82006    0.61292   1.00
H2       0.13036    0.83097    0.59826   1.00
H2       0.31328    0.88393    0.59092   1.00
H2       0.28468    0.92298    0.57498   1.00
H2       0.27648    0.90245    0.62171   1.00
H2       0.24138    0.80431    0.58735   1.00
H2       0.28692    0.81979    0.60422   1.00
H2       0.24450    0.83493    0.62914   1.00
H2       0.19486    0.88984    0.64740   1.00
H2       0.16292    0.93027    0.64951   1.00
H2       0.14668    0.88717    0.62870   1.00
H2       0.23098    0.95349    0.62440   1.00
H2       0.22932    0.96694    0.57523   1.00
H2       0.19172    0.98126    0.60656   1.00
H2       0.23312    0.95441    0.42406   1.00
H2       0.23191    0.94185    0.37445   1.00
H2       0.21952    0.90688    0.40969   1.00
H2       0.29875    0.97098    0.37192   1.00
H2       0.30426    0.97692    0.42241   1.00
H2       0.33878    0.94985    0.39540   1.00
H2       0.39798    0.85698    0.47449   1.00
H2       0.35565    0.86370    0.50256   1.00
H2       0.35965    0.82269    0.47148   1.00
H2       0.35584    0.87808    0.37596   1.00
H2       0.39788    0.86466    0.40199   1.00
H2       0.35915    0.83109    0.39735   1.00
H2       0.21344    0.85068    0.44758   1.00
H2       0.22619    0.80074    0.45035   1.00
H2       0.24166    0.83314    0.48667   1.00
H2       0.25956    0.79557    0.38789   1.00
H2       0.24378    0.84329    0.37670   1.00
H2       0.29343    0.83020    0.37150   1.00
C4       0.77084    1.00241    0.50186   1.00
C4       0.72912    1.00233    0.50113   1.00
C3       0.79364    1.03686    0.50499   1.00
C3       0.70616    1.03681    0.49989   1.00
C3       0.79123    0.96623    0.49869   1.00
C3       0.70886    0.96594    0.50178   1.00
C2       0.85512    1.00028    0.50116   1.00
C2       0.64488    0.99972    0.49884   1.00
C3       0.83462    1.03588    0.50444   1.00
C3       0.66519    1.03557    0.49914   1.00
C3       0.83258    0.96579    0.49892   1.00
C3       0.66762    0.96530    0.49932   1.00
H1       0.78115    1.06367    0.50791   1.00
H1       0.71852    1.06383    0.49924   1.00
C5       0.77020    0.93070    0.49548   1.00
C5       0.72980    0.93038    0.50452   1.00
H1       0.84955    1.06176    0.50652   1.00
H1       0.65010    1.06145    0.49859   1.00
H1       0.84680    0.93953    0.49772   1.00
H1       0.65368    0.93900    0.49730   1.00
O3       0.78961    0.89681    0.48594   1.00
O3       0.71099    0.89571    0.51294   1.00
Si1      0.79247    0.88315    0.44037   1.00
Si1      0.70279    0.88447    0.55848   1.00
C6       0.82538    0.84416    0.44745   1.00
C6       0.74598    0.86605    0.42648   1.00
C6       0.81253    0.91922    0.40952   1.00
C6       0.71693    0.91817    0.59489   1.00
C6       0.65198    0.87811    0.55992   1.00
C6       0.72477    0.83880    0.56707   1.00
C6       0.86194    0.85334    0.47339   1.00
H2       0.80791    0.82364    0.46447   1.00
C6       0.84147    0.82009    0.41194   1.00
H2       0.73358    0.85725    0.45446   1.00
C6       0.71634    0.89582    0.40860   1.00
C6       0.74336    0.82910    0.39976   1.00
H2       0.83831    0.92845    0.42588   1.00
C6       0.82772    0.90566    0.36858   1.00
C6       0.78849    0.95723    0.40053   1.00
C6       0.76071    0.93095    0.59648   1.00
C6       0.69225    0.95611    0.60130   1.00
H2       0.71212    0.90158    0.62165   1.00
H2       0.64051    0.90759    0.55628   1.00
C6       0.63378    0.85372    0.52582   1.00
C6       0.63393    0.86193    0.59858   1.00
H2       0.70375    0.81782    0.55553   1.00
C6       0.76336    0.83041    0.54448   1.00
C6       0.73244    0.82642    0.61039   1.00
H2       0.85346    0.86470    0.50194   1.00
H2       0.88090    0.87486    0.45944   1.00
H2       0.87917    0.82704    0.47877   1.00
H2       0.84608    0.78971    0.42053   1.00
H2       0.82178    0.82006    0.38708   1.00
H2       0.86964    0.83097    0.40174   1.00
H2       0.68672    0.88393    0.40908   1.00
H2       0.71532    0.92298    0.42502   1.00
H2       0.72352    0.90245    0.37829   1.00
H2       0.75862    0.80431    0.41265   1.00
H2       0.71308    0.81979    0.39578   1.00
H2       0.75550    0.83493    0.37086   1.00
H2       0.80514    0.88984    0.35260   1.00
H2       0.83708    0.93027    0.35049   1.00
H2       0.85332    0.88717    0.37130   1.00
H2       0.76902    0.95349    0.37560   1.00
H2       0.77068    0.96694    0.42477   1.00
H2       0.80828    0.98126    0.39344   1.00
H2       0.76688    0.95441    0.57594   1.00
H2       0.76809    0.94185    0.62555   1.00
H2       0.78048    0.90688    0.59031   1.00
H2       0.70125    0.97098    0.62808   1.00
H2       0.69574    0.97692    0.57759   1.00
H2       0.66122    0.94985    0.60460   1.00
H2       0.60202    0.85698    0.52551   1.00
H2       0.64435    0.86370    0.49744   1.00
H2       0.64035    0.82269    0.52852   1.00
H2       0.64416    0.87808    0.62404   1.00
H2       0.60212    0.86466    0.59801   1.00
H2       0.64085    0.83109    0.60265   1.00
H2       0.78656    0.85068    0.55242   1.00
H2       0.77381    0.80074    0.54965   1.00
H2       0.75834    0.83314    0.51333   1.00
H2       0.74044    0.79557    0.61211   1.00
H2       0.75622    0.84329    0.62330   1.00
H2       0.70657    0.83020    0.62850   1.00
C4       0.49814    0.72916    0.50241   1.00
C4       0.49887    0.77088    0.50233   1.00
C3       0.49501    0.70636    0.53686   1.00
C3       0.50011    0.79384    0.53681   1.00
C3       0.50131    0.70877    0.46623   1.00
C3       0.49822    0.79114    0.46594   1.00
C2       0.49884    0.64488    0.50028   1.00
C2       0.50116    0.85512    0.49972   1.00
C3       0.49556    0.66538    0.53588   1.00
C3       0.50086    0.83481    0.53557   1.00
C3       0.50108    0.66742    0.46579   1.00
C3       0.50068    0.83238    0.46530   1.00
H1       0.49209    0.71885    0.56367   1.00
H1       0.50076    0.78148    0.56383   1.00
C5       0.50452    0.72980    0.43070   1.00
C5       0.49548    0.77020    0.43038   1.00
H1       0.49348    0.65045    0.56176   1.00
H1       0.50141    0.84990    0.56145   1.00
H1       0.50228    0.65320    0.43953   1.00
H1       0.50270    0.84632    0.43900   1.00
O3       0.51406    0.71039    0.39681   1.00
O3       0.48706    0.78901    0.39571   1.00
Si1      0.55963    0.70753    0.38315   1.00
Si1      0.44152    0.79721    0.38447   1.00
C6       0.55255    0.67462    0.34416   1.00
C6       0.57352    0.75402    0.36605   1.00
C6       0.59048    0.68747    0.41922   1.00
C6       0.40511    0.78307    0.41817   1.00
C6       0.44008    0.84802    0.37811   1.00
C6       0.43293    0.77523    0.33880   1.00
C6       0.52661    0.63806    0.35334   1.00
H2       0.53553    0.69209    0.32364   1.00
C6       0.58806    0.65853    0.32009   1.00
H2       0.54554    0.76642    0.35725   1.00
C6       0.59140    0.78366    0.39582   1.00
C6       0.60024    0.75664    0.32910   1.00
H2       0.57412    0.66169    0.42845   1.00
C6       0.63142    0.67228    0.40566   1.00
C6       0.59947    0.71151    0.45723   1.00
C6       0.40352    0.73929    0.43095   1.00
C6       0.39870    0.80775    0.45611   1.00
H2       0.37835    0.78788    0.40158   1.00
H2       0.44372    0.85949    0.40759   1.00
C6       0.47418    0.86622    0.35372   1.00
C6       0.40142    0.86607    0.36193   1.00
H2       0.44447    0.79625    0.31782   1.00
C6       0.45552    0.73664    0.33041   1.00
C6       0.38961    0.76756    0.32642   1.00
H2       0.49806    0.64654    0.36470   1.00
H2       0.54056    0.61910    0.37486   1.00
H2       0.52123    0.62083    0.32704   1.00
H2       0.57947    0.65392    0.28971   1.00
H2       0.61292    0.67822    0.32006   1.00
H2       0.59826    0.63036    0.33097   1.00
H2       0.59092    0.81328    0.38393   1.00
H2       0.57498    0.78468    0.42298   1.00
H2       0.62171    0.77648    0.40245   1.00
H2       0.58735    0.74138    0.30431   1.00
H2       0.60422    0.78692    0.31979   1.00
H2       0.62914    0.74450    0.33493   1.00
H2       0.64740    0.69486    0.38984   1.00
H2       0.64951    0.66292    0.43027   1.00
H2       0.62870    0.64668    0.38717   1.00
H2       0.62440    0.73098    0.45349   1.00
H2       0.57523    0.72932    0.46694   1.00
H2       0.60656    0.69172    0.48126   1.00
H2       0.42406    0.73312    0.45441   1.00
H2       0.37445    0.73191    0.44185   1.00
H2       0.40969    0.71952    0.40688   1.00
H2       0.37192    0.79875    0.47098   1.00
H2       0.42241    0.80426    0.47692   1.00
H2       0.39540    0.83878    0.44985   1.00
H2       0.47449    0.89798    0.35698   1.00
H2       0.50256    0.85565    0.36370   1.00
H2       0.47148    0.85965    0.32269   1.00
H2       0.37596    0.85584    0.37808   1.00
H2       0.40199    0.89788    0.36466   1.00
H2       0.39735    0.85915    0.33109   1.00
H2       0.44758    0.71344    0.35068   1.00
H2       0.45035    0.72619    0.30074   1.00
H2       0.48667    0.74166    0.33314   1.00
H2       0.38789    0.75956    0.29557   1.00
H2       0.37670    0.74378    0.34329   1.00
H2       0.37150    0.79343    0.33020   1.00
C4       0.50241    0.99814    0.22916   1.00
C4       0.50233    0.99887    0.27088   1.00
C3       0.53686    0.99501    0.20636   1.00
C3       0.53681    1.00011    0.29384   1.00
C3       0.46623    1.00131    0.20877   1.00
C3       0.46594    0.99822    0.29114   1.00
C2       0.50028    0.99884    0.14488   1.00
C2       0.49972    1.00116    0.35512   1.00
C3       0.53588    0.99556    0.16538   1.00
C3       0.53557    1.00086    0.33481   1.00
C3       0.46579    1.00108    0.16742   1.00
C3       0.46530    1.00068    0.33238   1.00
H1       0.56367    0.99209    0.21885   1.00
H1       0.56383    1.00076    0.28148   1.00
C5       0.43070    1.00452    0.22980   1.00
C5       0.43038    0.99548    0.27020   1.00
H1       0.56176    0.99348    0.15045   1.00
H1       0.56145    1.00141    0.34990   1.00
H1       0.43953    1.00228    0.15320   1.00
H1       0.43900    1.00270    0.34632   1.00
O3       0.39681    1.01406    0.21039   1.00
O3       0.39571    0.98706    0.28901   1.00
Si1      0.38315    1.05963    0.20753   1.00
Si1      0.38447    0.94152    0.29721   1.00
C6       0.34416    1.05255    0.17462   1.00
C6       0.36605    1.07352    0.25402   1.00
C6       0.41922    1.09048    0.18747   1.00
C6       0.41817    0.90511    0.28307   1.00
C6       0.37811    0.94008    0.34802   1.00
C6       0.33880    0.93293    0.27523   1.00
C6       0.35334    1.02661    0.13806   1.00
H2       0.32364    1.03553    0.19209   1.00
C6       0.32009    1.08806    0.15853   1.00
H2       0.35725    1.04554    0.26642   1.00
C6       0.39582    1.09140    0.28366   1.00
C6       0.32910    1.10024    0.25664   1.00
H2       0.42845    1.07412    0.16169   1.00
C6       0.40566    1.13142    0.17228   1.00
C6       0.45723    1.09947    0.21151   1.00
C6       0.43095    0.90352    0.23929   1.00
C6       0.45611    0.89870    0.30775   1.00
H2       0.40158    0.87835    0.28788   1.00
H2       0.40759    0.94372    0.35949   1.00
C6       0.35372    0.97418    0.36622   1.00
C6       0.36193    0.90142    0.36607   1.00
H2       0.31782    0.94447    0.29625   1.00
C6       0.33041    0.95552    0.23664   1.00
C6       0.32642    0.88961    0.26756   1.00
H2       0.36470    0.99806    0.14654   1.00
H2       0.37486    1.04056    0.11910   1.00
H2       0.32704    1.02123    0.12083   1.00
H2       0.28971    1.07947    0.15392   1.00
H2       0.32006    1.11292    0.17822   1.00
H2       0.33097    1.09826    0.13036   1.00
H2       0.38393    1.09092    0.31328   1.00
H2       0.42298    1.07498    0.28468   1.00
H2       0.40245    1.12171    0.27648   1.00
H2       0.30431    1.08735    0.24138   1.00
H2       0.31979    1.10422    0.28692   1.00
H2       0.33493    1.12914    0.24450   1.00
H2       0.38984    1.14740    0.19486   1.00
H2       0.43027    1.14951    0.16292   1.00
H2       0.38717    1.12870    0.14668   1.00
H2       0.45349    1.12440    0.23098   1.00
H2       0.46694    1.07523    0.22932   1.00
H2       0.48126    1.10656    0.19172   1.00
H2       0.45441    0.92406    0.23312   1.00
H2       0.44185    0.87445    0.23191   1.00
H2       0.40688    0.90969    0.21952   1.00
H2       0.47098    0.87192    0.29875   1.00
H2       0.47692    0.92241    0.30426   1.00
H2       0.44985    0.89540    0.33878   1.00
H2       0.35698    0.97449    0.39798   1.00
H2       0.36370    1.00256    0.35565   1.00
H2       0.32269    0.97148    0.35965   1.00
H2       0.37808    0.87596    0.35584   1.00
H2       0.36466    0.90199    0.39788   1.00
H2       0.33109    0.89735    0.35915   1.00
H2       0.35068    0.94758    0.21344   1.00
H2       0.30074    0.95035    0.22619   1.00
H2       0.33314    0.98667    0.24166   1.00
H2       0.29557    0.88789    0.25956   1.00
H2       0.34329    0.87670    0.24378   1.00
H2       0.33020    0.87150    0.29343   1.00
C4       1.00241    0.50186    0.77084   1.00
C4       1.00233    0.50113    0.72912   1.00
C3       1.03686    0.50499    0.79364   1.00
C3       1.03681    0.49989    0.70616   1.00
C3       0.96623    0.49869    0.79123   1.00
C3       0.96594    0.50178    0.70886   1.00
C2       1.00028    0.50116    0.85512   1.00
C2       0.99972    0.49884    0.64488   1.00
C3       1.03588    0.50444    0.83462   1.00
C3       1.03557    0.49914    0.66519   1.00
C3       0.96579    0.49892    0.83258   1.00
C3       0.96530    0.49932    0.66762   1.00
H1       1.06367    0.50791    0.78115   1.00
H1       1.06383    0.49924    0.71852   1.00
C5       0.93070    0.49548    0.77020   1.00
C5       0.93038    0.50452    0.72980   1.00
H1       1.06176    0.50652    0.84955   1.00
H1       1.06145    0.49859    0.65010   1.00
H1       0.93953    0.49772    0.84680   1.00
H1       0.93900    0.49730    0.65368   1.00
O3       0.89681    0.48594    0.78961   1.00
O3       0.89571    0.51294    0.71099   1.00
Si1      0.88315    0.44037    0.79247   1.00
Si1      0.88447    0.55848    0.70279   1.00
C6       0.84416    0.44745    0.82538   1.00
C6       0.86605    0.42648    0.74598   1.00
C6       0.91922    0.40952    0.81253   1.00
C6       0.91817    0.59489    0.71693   1.00
C6       0.87811    0.55992    0.65198   1.00
C6       0.83880    0.56707    0.72477   1.00
C6       0.85334    0.47339    0.86194   1.00
H2       0.82364    0.46447    0.80791   1.00
C6       0.82009    0.41194    0.84147   1.00
H2       0.85725    0.45446    0.73358   1.00
C6       0.89582    0.40860    0.71634   1.00
C6       0.82910    0.39976    0.74336   1.00
H2       0.92845    0.42588    0.83831   1.00
C6       0.90566    0.36858    0.82772   1.00
C6       0.95723    0.40053    0.78849   1.00
C6       0.93095    0.59648    0.76071   1.00
C6       0.95611    0.60130    0.69225   1.00
H2       0.90158    0.62165    0.71212   1.00
H2       0.90759    0.55628    0.64051   1.00
C6       0.85372    0.52582    0.63378   1.00
C6       0.86193    0.59858    0.63393   1.00
H2       0.81782    0.55553    0.70375   1.00
C6       0.83041    0.54448    0.76336   1.00
C6       0.82642    0.61039    0.73244   1.00
H2       0.86470    0.50194    0.85346   1.00
H2       0.87486    0.45944    0.88090   1.00
H2       0.82704    0.47877    0.87917   1.00
H2       0.78971    0.42053    0.84608   1.00
H2       0.82006    0.38708    0.82178   1.00
H2       0.83097    0.40174    0.86964   1.00
H2       0.88393    0.40908    0.68672   1.00
H2       0.92298    0.42502    0.71532   1.00
H2       0.90245    0.37829    0.72352   1.00
H2       0.80431    0.41265    0.75862   1.00
H2       0.81979    0.39578    0.71308   1.00
H2       0.83493    0.37086    0.75550   1.00
H2       0.88984    0.35260    0.80514   1.00
H2       0.93027    0.35049    0.83708   1.00
H2       0.88717    0.37130    0.85332   1.00
H2       0.95349    0.37560    0.76902   1.00
H2       0.96694    0.42477    0.77068   1.00
H2       0.98126    0.39344    0.80828   1.00
H2       0.95441    0.57594    0.76688   1.00
H2       0.94185    0.62555    0.76809   1.00
H2       0.90688    0.59031    0.78048   1.00
H2       0.97098    0.62808    0.70125   1.00
H2       0.97692    0.57759    0.69574   1.00
H2       0.94985    0.60460    0.66122   1.00
H2       0.85698    0.52551    0.60202   1.00
H2       0.86370    0.49744    0.64435   1.00
H2       0.82269    0.52852    0.64035   1.00
H2       0.87808    0.62404    0.64416   1.00
H2       0.86466    0.59801    0.60212   1.00
H2       0.83109    0.60265    0.64085   1.00
H2       0.85068    0.55242    0.78656   1.00
H2       0.80074    0.54965    0.77381   1.00
H2       0.83314    0.51333    0.75834   1.00
H2       0.79557    0.61211    0.74044   1.00
H2       0.84329    0.62330    0.75622   1.00
H2       0.83020    0.62850    0.70657   1.00
C4       1.00186    0.77084    0.50241   1.00
C4       1.00113    0.72912    0.50233   1.00
C3       1.00499    0.79364    0.53686   1.00
C3       0.99989    0.70616    0.53681   1.00
C3       0.99869    0.79123    0.46623   1.00
C3       1.00178    0.70886    0.46594   1.00
C2       1.00116    0.85512    0.50028   1.00
C2       0.99884    0.64488    0.49972   1.00
C3       1.00444    0.83462    0.53588   1.00
C3       0.99914    0.66519    0.53557   1.00
C3       0.99892    0.83258    0.46579   1.00
C3       0.99932    0.66762    0.46530   1.00
H1       1.00791    0.78115    0.56367   1.00
H1       0.99924    0.71852    0.56383   1.00
C5       0.99548    0.77020    0.43070   1.00
C5       1.00452    0.72980    0.43038   1.00
H1       1.00652    0.84955    0.56176   1.00
H1       0.99859    0.65010    0.56145   1.00
H1       0.99772    0.84680    0.43953   1.00
H1       0.99730    0.65368    0.43900   1.00
O3       0.98594    0.78961    0.39681   1.00
O3       1.01294    0.71099    0.39571   1.00
Si1      0.94037    0.79247    0.38315   1.00
Si1      1.05848    0.70279    0.38447   1.00
C6       0.94745    0.82538    0.34416   1.00
C6       0.92648    0.74598    0.36605   1.00
C6       0.90952    0.81253    0.41922   1.00
C6       1.09489    0.71693    0.41817   1.00
C6       1.05992    0.65198    0.37811   1.00
C6       1.06707    0.72477    0.33880   1.00
C6       0.97339    0.86194    0.35334   1.00
H2       0.96447    0.80791    0.32364   1.00
C6       0.91194    0.84147    0.32009   1.00
H2       0.95446    0.73358    0.35725   1.00
C6       0.90860    0.71634    0.39582   1.00
C6       0.89976    0.74336    0.32910   1.00
H2       0.92588    0.83831    0.42845   1.00
C6       0.86858    0.82772    0.40566   1.00
C6       0.90053    0.78849    0.45723   1.00
C6       1.09648    0.76071    0.43095   1.00
C6       1.10130    0.69225    0.45611   1.00
H2       1.12165    0.71212    0.40158   1.00
H2       1.05628    0.64051    0.40759   1.00
C6       1.02582    0.63378    0.35372   1.00
C6       1.09858    0.63393    0.36193   1.00
H2       1.05553    0.70375    0.31782   1.00
C6       1.04448    0.76336    0.33041   1.00
C6       1.11039    0.73244    0.32642   1.00
H2       1.00194    0.85346    0.36470   1.00
H2       0.95944    0.88090    0.37486   1.00
H2       0.97877    0.87917    0.32704   1.00
H2       0.92053    0.84608    0.28971   1.00
H2       0.88708    0.82178    0.32006   1.00
H2       0.90174    0.86964    0.33097   1.00
H2       0.90908    0.68672    0.38393   1.00
H2       0.92502    0.71532    0.42298   1.00
H2       0.87829    0.72352    0.40245   1.00
H2       0.91265    0.75862    0.30431   1.00
H2       0.89578    0.71308    0.31979   1.00
H2       0.87086    0.75550    0.33493   1.00
H2       0.85260    0.80514    0.38984   1.00
H2       0.85049    0.83708    0.43027   1.00
H2       0.87130    0.85332    0.38717   1.00
H2       0.87560    0.76902    0.45349   1.00
H2       0.92477    0.77068    0.46694   1.00
H2       0.89344    0.80828    0.48126   1.00
H2       1.07594    0.76688    0.45441   1.00
H2       1.12555    0.76809    0.44185   1.00
H2       1.09031    0.78048    0.40688   1.00
H2       1.12808    0.70125    0.47098   1.00
H2       1.07759    0.69574    0.47692   1.00
H2       1.10460    0.66122    0.44985   1.00
H2       1.02551    0.60202    0.35698   1.00
H2       0.99744    0.64435    0.36370   1.00
H2       1.02852    0.64035    0.32269   1.00
H2       1.12404    0.64416    0.37808   1.00
H2       1.09801    0.60212    0.36466   1.00
H2       1.10265    0.64085    0.33109   1.00
H2       1.05242    0.78656    0.35068   1.00
H2       1.04965    0.77381    0.30074   1.00
H2       1.01333    0.75834    0.33314   1.00
H2       1.11211    0.74044    0.29557   1.00
H2       1.12330    0.75622    0.34329   1.00
H2       1.12850    0.70657    0.33020   1.00
C4       0.72916    0.50241    0.49814   1.00
C4       0.77088    0.50233    0.49887   1.00
C3       0.70636    0.53686    0.49501   1.00
C3       0.79384    0.53681    0.50011   1.00
C3       0.70877    0.46623    0.50131   1.00
C3       0.79114    0.46594    0.49822   1.00
C2       0.64488    0.50028    0.49884   1.00
C2       0.85512    0.49972    0.50116   1.00
C3       0.66538    0.53588    0.49556   1.00
C3       0.83481    0.53557    0.50086   1.00
C3       0.66742    0.46579    0.50108   1.00
C3       0.83238    0.46530    0.50068   1.00
H1       0.71885    0.56367    0.49209   1.00
H1       0.78148    0.56383    0.50076   1.00
C5       0.72980    0.43070    0.50452   1.00
C5       0.77020    0.43038    0.49548   1.00
H1       0.65045    0.56176    0.49348   1.00
H1       0.84990    0.56145    0.50141   1.00
H1       0.65320    0.43953    0.50228   1.00
H1       0.84632    0.43900    0.50270   1.00
O3       0.71039    0.39681    0.51406   1.00
O3       0.78901    0.39571    0.48706   1.00
Si1      0.70753    0.38315    0.55963   1.00
Si1      0.79721    0.38447    0.44152   1.00
C6       0.67462    0.34416    0.55255   1.00
C6       0.75402    0.36605    0.57352   1.00
C6       0.68747    0.41922    0.59048   1.00
C6       0.78307    0.41817    0.40511   1.00
C6       0.84802    0.37811    0.44008   1.00
C6       0.77523    0.33880    0.43293   1.00
C6       0.63806    0.35334    0.52661   1.00
H2       0.69209    0.32364    0.53553   1.00
C6       0.65853    0.32009    0.58806   1.00
H2       0.76642    0.35725    0.54554   1.00
C6       0.78366    0.39582    0.59140   1.00
C6       0.75664    0.32910    0.60024   1.00
H2       0.66169    0.42845    0.57412   1.00
C6       0.67228    0.40566    0.63142   1.00
C6       0.71151    0.45723    0.59947   1.00
C6       0.73929    0.43095    0.40352   1.00
C6       0.80775    0.45611    0.39870   1.00
H2       0.78788    0.40158    0.37835   1.00
H2       0.85949    0.40759    0.44372   1.00
C6       0.86622    0.35372    0.47418   1.00
C6       0.86607    0.36193    0.40142   1.00
H2       0.79625    0.31782    0.44447   1.00
C6       0.73664    0.33041    0.45552   1.00
C6       0.76756    0.32642    0.38961   1.00
H2       0.64654    0.36470    0.49806   1.00
H2       0.61910    0.37486    0.54056   1.00
H2       0.62083    0.32704    0.52123   1.00
H2       0.65392    0.28971    0.57947   1.00
H2       0.67822    0.32006    0.61292   1.00
H2       0.63036    0.33097    0.59826   1.00
H2       0.81328    0.38393    0.59092   1.00
H2       0.78468    0.42298    0.57498   1.00
H2       0.77648    0.40245    0.62171   1.00
H2       0.74138    0.30431    0.58735   1.00
H2       0.78692    0.31979    0.60422   1.00
H2       0.74450    0.33493    0.62914   1.00
H2       0.69486    0.38984    0.64740   1.00
H2       0.66292    0.43027    0.64951   1.00
H2       0.64668    0.38717    0.62870   1.00
H2       0.73098    0.45349    0.62440   1.00
H2       0.72932    0.46694    0.57523   1.00
H2       0.69172    0.48126    0.60656   1.00
H2       0.73312    0.45441    0.42406   1.00
H2       0.73191    0.44185    0.37445   1.00
H2       0.71952    0.40688    0.40969   1.00
H2       0.79875    0.47098    0.37192   1.00
H2       0.80426    0.47692    0.42241   1.00
H2       0.83878    0.44985    0.39540   1.00
H2       0.89798    0.35698    0.47449   1.00
H2       0.85565    0.36370    0.50256   1.00
H2       0.85965    0.32269    0.47148   1.00
H2       0.85584    0.37808    0.37596   1.00
H2       0.89788    0.36466    0.40199   1.00
H2       0.85915    0.33109    0.39735   1.00
H2       0.71344    0.35068    0.44758   1.00
H2       0.72619    0.30074    0.45035   1.00
H2       0.74166    0.33314    0.48667   1.00
H2       0.75956    0.29557    0.38789   1.00
H2       0.74378    0.34329    0.37670   1.00
H2       0.79343    0.33020    0.37150   1.00
C4       1.27084    0.50241    0.50186   1.00
C4       1.22912    0.50233    0.50113   1.00
C3       1.29364    0.53686    0.50499   1.00
C3       1.20616    0.53681    0.49989   1.00
C3       1.29123    0.46623    0.49869   1.00
C3       1.20886    0.46594    0.50178   1.00
C2       1.35512    0.50028    0.50116   1.00
C2       1.14488    0.49972    0.49884   1.00
C3       1.33462    0.53588    0.50444   1.00
C3       1.16519    0.53557    0.49914   1.00
C3       1.33258    0.46579    0.49892   1.00
C3       1.16762    0.46530    0.49932   1.00
H1       1.28115    0.56367    0.50791   1.00
H1       1.21852    0.56383    0.49924   1.00
C5       1.27020    0.43070    0.49548   1.00
C5       1.22980    0.43038    0.50452   1.00
H1       1.34955    0.56176    0.50652   1.00
H1       1.15010    0.56145    0.49859   1.00
H1       1.34680    0.43953    0.49772   1.00
H1       1.15368    0.43900    0.49730   1.00
O3       1.28961    0.39681    0.48594   1.00
O3       1.21099    0.39571    0.51294   1.00
Si1      1.29247    0.38315    0.44037   1.00
Si1      1.20279    0.38447    0.55848   1.00
C6       1.32538    0.34416    0.44745   1.00
C6       1.24598    0.36605    0.42648   1.00
C6       1.31253    0.41922    0.40952   1.00
C6       1.21693    0.41817    0.59489   1.00
C6       1.15198    0.37811    0.55992   1.00
C6       1.22477    0.33880    0.56707   1.00
C6       1.36194    0.35334    0.47339   1.00
H2       1.30791    0.32364    0.46447   1.00
C6       1.34147    0.32009    0.41194   1.00
H2       1.23358    0.35725    0.45446   1.00
C6       1.21634    0.39582    0.40860   1.00
C6       1.24336    0.32910    0.39976   1.00
H2       1.33831    0.42845    0.42588   1.00
C6       1.32772    0.40566    0.36858   1.00
C6       1.28849    0.45723    0.40053   1.00
C6       1.26071    0.43095    0.59648   1.00
C6       1.19225    0.45611    0.60130   1.00
H2       1.21212    0.40158    0.62165   1.00
H2       1.14051    0.40759    0.55628   1.00
C6       1.13378    0.35372    0.52582   1.00
C6       1.13393    0.36193    0.59858   1.00
H2       1.20375    0.31782    0.55553   1.00
C6       1.26336    0.33041    0.54448   1.00
C6       1.23244    0.32642    0.61039   1.00
H2       1.35346    0.36470    0.50194   1.00
H2       1.38090    0.37486    0.45944   1.00
H2       1.37917    0.32704    0.47877   1.00
H2       1.34608    0.28971    0.42053   1.00
H2       1.32178    0.32006    0.38708   1.00
H2       1.36964    0.33097    0.40174   1.00
H2       1.18672    0.38393    0.40908   1.00
H2       1.21532    0.42298    0.42502   1.00
H2       1.22352    0.40245    0.37829   1.00
H2       1.25862    0.30431    0.41265   1.00
H2       1.21308    0.31979    0.39578   1.00
H2       1.25550    0.33493    0.37086   1.00
H2       1.30514    0.38984    0.35260   1.00
H2       1.33708    0.43027    0.35049   1.00
H2       1.35332    0.38717    0.37130   1.00
H2       1.26902    0.45349    0.37560   1.00
H2       1.27068    0.46694    0.42477   1.00
H2       1.30828    0.48126    0.39344   1.00
H2       1.26688    0.45441    0.57594   1.00
H2       1.26809    0.44185    0.62555   1.00
H2       1.28048    0.40688    0.59031   1.00
H2       1.20125    0.47098    0.62808   1.00
H2       1.19574    0.47692    0.57759   1.00
H2       1.16122    0.44985    0.60460   1.00
H2       1.10202    0.35698    0.52551   1.00
H2       1.14435    0.36370    0.49744   1.00
H2       1.14035    0.32269    0.52852   1.00
H2       1.14416    0.37808    0.62404   1.00
H2       1.10212    0.36466    0.59801   1.00
H2       1.14085    0.33109    0.60265   1.00
H2       1.28656    0.35068    0.55242   1.00
H2       1.27381    0.30074    0.54965   1.00
H2       1.25834    0.33314    0.51333   1.00
H2       1.24044    0.29557    0.61211   1.00
H2       1.25622    0.34329    0.62330   1.00
H2       1.20657    0.33020    0.62850   1.00
C4       0.99814    0.22916    0.50241   1.00
C4       0.99887    0.27088    0.50233   1.00
C3       0.99501    0.20636    0.53686   1.00
C3       1.00011    0.29384    0.53681   1.00
C3       1.00131    0.20877    0.46623   1.00
C3       0.99822    0.29114    0.46594   1.00
C2       0.99884    0.14488    0.50028   1.00
C2       1.00116    0.35512    0.49972   1.00
C3       0.99556    0.16538    0.53588   1.00
C3       1.00086    0.33481    0.53557   1.00
C3       1.00108    0.16742    0.46579   1.00
C3       1.00068    0.33238    0.46530   1.00
H1       0.99209    0.21885    0.56367   1.00
H1       1.00076    0.28148    0.56383   1.00
C5       1.00452    0.22980    0.43070   1.00
C5       0.99548    0.27020    0.43038   1.00
H1       0.99348    0.15045    0.56176   1.00
H1       1.00141    0.34990    0.56145   1.00
H1       1.00228    0.15320    0.43953   1.00
H1       1.00270    0.34632    0.43900   1.00
O3       1.01406    0.21039    0.39681   1.00
O3       0.98706    0.28901    0.39571   1.00
Si1      1.05963    0.20753    0.38315   1.00
Si1      0.94152    0.29721    0.38447   1.00
C6       1.05255    0.17462    0.34416   1.00
C6       1.07352    0.25402    0.36605   1.00
C6       1.09048    0.18747    0.41922   1.00
C6       0.90511    0.28307    0.41817   1.00
C6       0.94008    0.34802    0.37811   1.00
C6       0.93293    0.27523    0.33880   1.00
C6       1.02661    0.13806    0.35334   1.00
H2       1.03553    0.19209    0.32364   1.00
C6       1.08806    0.15853    0.32009   1.00
H2       1.04554    0.26642    0.35725   1.00
C6       1.09140    0.28366    0.39582   1.00
C6       1.10024    0.25664    0.32910   1.00
H2       1.07412    0.16169    0.42845   1.00
C6       1.13142    0.17228    0.40566   1.00
C6       1.09947    0.21151    0.45723   1.00
C6       0.90352    0.23929    0.43095   1.00
C6       0.89870    0.30775    0.45611   1.00
H2       0.87835    0.28788    0.40158   1.00
H2       0.94372    0.35949    0.40759   1.00
C6       0.97418    0.36622    0.35372   1.00
C6       0.90142    0.36607    0.36193   1.00
H2       0.94447    0.29625    0.31782   1.00
C6       0.95552    0.23664    0.33041   1.00
C6       0.88961    0.26756    0.32642   1.00
H2       0.99806    0.14654    0.36470   1.00
H2       1.04056    0.11910    0.37486   1.00
H2       1.02123    0.12083    0.32704   1.00
H2       1.07947    0.15392    0.28971   1.00
H2       1.11292    0.17822    0.32006   1.00
H2       1.09826    0.13036    0.33097   1.00
H2       1.09092    0.31328    0.38393   1.00
H2       1.07498    0.28468    0.42298   1.00
H2       1.12171    0.27648    0.40245   1.00
H2       1.08735    0.24138    0.30431   1.00
H2       1.10422    0.28692    0.31979   1.00
H2       1.12914    0.24450    0.33493   1.00
H2       1.14740    0.19486    0.38984   1.00
H2       1.14951    0.16292    0.43027   1.00
H2       1.12870    0.14668    0.38717   1.00
H2       1.12440    0.23098    0.45349   1.00
H2       1.07523    0.22932    0.46694   1.00
H2       1.10656    0.19172    0.48126   1.00
H2       0.92406    0.23312    0.45441   1.00
H2       0.87445    0.23191    0.44185   1.00
H2       0.90969    0.21952    0.40688   1.00
H2       0.87192    0.29875    0.47098   1.00
H2       0.92241    0.30426    0.47692   1.00
H2       0.89540    0.33878    0.44985   1.00
H2       0.97449    0.39798    0.35698   1.00
H2       1.00256    0.35565    0.36370   1.00
H2       0.97148    0.35965    0.32269   1.00
H2       0.87596    0.35584    0.37808   1.00
H2       0.90199    0.39788    0.36466   1.00
H2       0.89735    0.35915    0.33109   1.00
H2       0.94758    0.21344    0.35068   1.00
H2       0.95035    0.22619    0.30074   1.00
H2       0.98667    0.24166    0.33314   1.00
H2       0.88789    0.25956    0.29557   1.00
H2       0.87670    0.24378    0.34329   1.00
H2       0.87150    0.29343    0.33020   1.00
C4       1.00241    0.49814    0.22916   1.00
C4       1.00233    0.49887    0.27088   1.00
C3       1.03686    0.49501    0.20636   1.00
C3       1.03681    0.50011    0.29384   1.00
C3       0.96623    0.50131    0.20877   1.00
C3       0.96594    0.49822    0.29114   1.00
C2       1.00028    0.49884    0.14488   1.00
C2       0.99972    0.50116    0.35512   1.00
C3       1.03588    0.49556    0.16538   1.00
C3       1.03557    0.50086    0.33481   1.00
C3       0.96579    0.50108    0.16742   1.00
C3       0.96530    0.50068    0.33238   1.00
H1       1.06367    0.49209    0.21885   1.00
H1       1.06383    0.50076    0.28148   1.00
C5       0.93070    0.50452    0.22980   1.00
C5       0.93038    0.49548    0.27020   1.00
H1       1.06176    0.49348    0.15045   1.00
H1       1.06145    0.50141    0.34990   1.00
H1       0.93953    0.50228    0.15320   1.00
H1       0.93900    0.50270    0.34632   1.00
O3       0.89681    0.51406    0.21039   1.00
O3       0.89571    0.48706    0.28901   1.00
Si1      0.88315    0.55963    0.20753   1.00
Si1      0.88447    0.44152    0.29721   1.00
C6       0.84416    0.55255    0.17462   1.00
C6       0.86605    0.57352    0.25402   1.00
C6       0.91922    0.59048    0.18747   1.00
C6       0.91817    0.40511    0.28307   1.00
C6       0.87811    0.44008    0.34802   1.00
C6       0.83880    0.43293    0.27523   1.00
C6       0.85334    0.52661    0.13806   1.00
H2       0.82364    0.53553    0.19209   1.00
C6       0.82009    0.58806    0.15853   1.00
H2       0.85725    0.54554    0.26642   1.00
C6       0.89582    0.59140    0.28366   1.00
C6       0.82910    0.60024    0.25664   1.00
H2       0.92845    0.57412    0.16169   1.00
C6       0.90566    0.63142    0.17228   1.00
C6       0.95723    0.59947    0.21151   1.00
C6       0.93095    0.40352    0.23929   1.00
C6       0.95611    0.39870    0.30775   1.00
H2       0.90158    0.37835    0.28788   1.00
H2       0.90759    0.44372    0.35949   1.00
C6       0.85372    0.47418    0.36622   1.00
C6       0.86193    0.40142    0.36607   1.00
H2       0.81782    0.44447    0.29625   1.00
C6       0.83041    0.45552    0.23664   1.00
C6       0.82642    0.38961    0.26756   1.00
H2       0.86470    0.49806    0.14654   1.00
H2       0.87486    0.54056    0.11910   1.00
H2       0.82704    0.52123    0.12083   1.00
H2       0.78971    0.57947    0.15392   1.00
H2       0.82006    0.61292    0.17822   1.00
H2       0.83097    0.59826    0.13036   1.00
H2       0.88393    0.59092    0.31328   1.00
H2       0.92298    0.57498    0.28468   1.00
H2       0.90245    0.62171    0.27648   1.00
H2       0.80431    0.58735    0.24138   1.00
H2       0.81979    0.60422    0.28692   1.00
H2       0.83493    0.62914    0.24450   1.00
H2       0.88984    0.64740    0.19486   1.00
H2       0.93027    0.64951    0.16292   1.00
H2       0.88717    0.62870    0.14668   1.00
H2       0.95349    0.62440    0.23098   1.00
H2       0.96694    0.57523    0.22932   1.00
H2       0.98126    0.60656    0.19172   1.00
H2       0.95441    0.42406    0.23312   1.00
H2       0.94185    0.37445    0.23191   1.00
H2       0.90688    0.40969    0.21952   1.00
H2       0.97098    0.37192    0.29875   1.00
H2       0.97692    0.42241    0.30426   1.00
H2       0.94985    0.39540    0.33878   1.00
H2       0.85698    0.47449    0.39798   1.00
H2       0.86370    0.50256    0.35565   1.00
H2       0.82269    0.47148    0.35965   1.00
H2       0.87808    0.37596    0.35584   1.00
H2       0.86466    0.40199    0.39788   1.00
H2       0.83109    0.39735    0.35915   1.00
H2       0.85068    0.44758    0.21344   1.00
H2       0.80074    0.45035    0.22619   1.00
H2       0.83314    0.48667    0.24166   1.00
H2       0.79557    0.38789    0.25956   1.00
H2       0.84329    0.37670    0.24378   1.00
H2       0.83020    0.37150    0.29343   1.00
