data_IRMOF10_SG202_interpen_Ligand1lp_label_e.

_audit_creation_method             'generated by an auxiliary program of Tobunporous'

_symmetry_space_group_name_H-M     'P 1'
_symmetry_Int_Tables_number        1
_symmetry_cell_setting             triclinic

_cell_length_a                    34.2800
_cell_length_b                    34.2800
_cell_length_c                    34.2800
_cell_angle_alpha                 90.0000
_cell_angle_beta                  90.0000
_cell_angle_gamma                 90.0000

loop_
_atom_site_label
_atom_site_fract_x
_atom_site_fract_y
_atom_site_fract_z
_atom_site_occupancy
O1       0.75000    0.75000    0.75000   1.00
Zn1      0.71720    0.78280    0.78280   1.00
Zn1      0.78280    0.71720    0.78280   1.00
Zn1      0.78280    0.78280    0.71720   1.00
Zn1      0.71720    0.71720    0.71720   1.00
O2       0.72650    0.77350    0.83820   1.00
O2       0.72650    0.83820    0.77350   1.00
O2       0.66180    0.77350    0.77350   1.00
O2       0.77350    0.72650    0.83820   1.00
O2       0.83820    0.72650    0.77350   1.00
O2       0.77350    0.66180    0.77350   1.00
O2       0.77350    0.83820    0.72650   1.00
O2       0.83820    0.77350    0.72650   1.00
O2       0.77350    0.77350    0.66180   1.00
O2       0.66180    0.72650    0.72650   1.00
O2       0.72650    0.66180    0.72650   1.00
O2       0.72650    0.72650    0.66180   1.00
C1       0.75000    0.75000    0.85520   1.00
C1       0.75000    0.85520    0.75000   1.00
C1       0.64480    0.75000    0.75000   1.00
C1       0.85520    0.75000    0.75000   1.00
C1       0.75000    0.64480    0.75000   1.00
C1       0.75000    0.75000    0.64480   1.00
O1       0.25000    0.25000    0.75000   1.00
Zn1      0.21720    0.28280    0.78280   1.00
Zn1      0.28280    0.21720    0.78280   1.00
Zn1      0.28280    0.28280    0.71720   1.00
Zn1      0.21720    0.21720    0.71720   1.00
O2       0.22650    0.27350    0.83820   1.00
O2       0.22650    0.33820    0.77350   1.00
O2       0.16180    0.27350    0.77350   1.00
O2       0.27350    0.22650    0.83820   1.00
O2       0.33820    0.22650    0.77350   1.00
O2       0.27350    0.16180    0.77350   1.00
O2       0.27350    0.33820    0.72650   1.00
O2       0.33820    0.27350    0.72650   1.00
O2       0.27350    0.27350    0.66180   1.00
O2       0.16180    0.22650    0.72650   1.00
O2       0.22650    0.16180    0.72650   1.00
O2       0.22650    0.22650    0.66180   1.00
C1       0.25000    0.25000    0.85520   1.00
C1       0.25000    0.35520    0.75000   1.00
C1       0.14480    0.25000    0.75000   1.00
C1       0.35520    0.25000    0.75000   1.00
C1       0.25000    0.14480    0.75000   1.00
C1       0.25000    0.25000    0.64480   1.00
O1       0.25000    0.75000    0.25000   1.00
Zn1      0.21720    0.78280    0.28280   1.00
Zn1      0.28280    0.71720    0.28280   1.00
Zn1      0.28280    0.78280    0.21720   1.00
Zn1      0.21720    0.71720    0.21720   1.00
O2       0.22650    0.77350    0.33820   1.00
O2       0.22650    0.83820    0.27350   1.00
O2       0.16180    0.77350    0.27350   1.00
O2       0.27350    0.72650    0.33820   1.00
O2       0.33820    0.72650    0.27350   1.00
O2       0.27350    0.66180    0.27350   1.00
O2       0.27350    0.83820    0.22650   1.00
O2       0.33820    0.77350    0.22650   1.00
O2       0.27350    0.77350    0.16180   1.00
O2       0.16180    0.72650    0.22650   1.00
O2       0.22650    0.66180    0.22650   1.00
O2       0.22650    0.72650    0.16180   1.00
C1       0.25000    0.75000    0.35520   1.00
C1       0.25000    0.85520    0.25000   1.00
C1       0.14480    0.75000    0.25000   1.00
C1       0.35520    0.75000    0.25000   1.00
C1       0.25000    0.64480    0.25000   1.00
C1       0.25000    0.75000    0.14480   1.00
O1       0.75000    0.25000    0.25000   1.00
Zn1      0.71720    0.28280    0.28280   1.00
Zn1      0.78280    0.21720    0.28280   1.00
Zn1      0.78280    0.28280    0.21720   1.00
Zn1      0.71720    0.21720    0.21720   1.00
O2       0.72650    0.27350    0.33820   1.00
O2       0.72650    0.33820    0.27350   1.00
O2       0.66180    0.27350    0.27350   1.00
O2       0.77350    0.22650    0.33820   1.00
O2       0.83820    0.22650    0.27350   1.00
O2       0.77350    0.16180    0.27350   1.00
O2       0.77350    0.33820    0.22650   1.00
O2       0.83820    0.27350    0.22650   1.00
O2       0.77350    0.27350    0.16180   1.00
O2       0.66180    0.22650    0.22650   1.00
O2       0.72650    0.16180    0.22650   1.00
O2       0.72650    0.22650    0.16180   1.00
C1       0.75000    0.25000    0.35520   1.00
C1       0.75000    0.35520    0.25000   1.00
C1       0.64480    0.25000    0.25000   1.00
C1       0.85520    0.25000    0.25000   1.00
C1       0.75000    0.14480    0.25000   1.00
C1       0.75000    0.25000    0.14480   1.00
O1       0.25000    0.25000    0.25000   1.00
Zn1      0.28280    0.21720    0.21720   1.00
Zn1      0.21720    0.28280    0.21720   1.00
Zn1      0.21720    0.21720    0.28280   1.00
Zn1      0.28280    0.28280    0.28280   1.00
O2       0.27350    0.22650    0.16180   1.00
O2       0.27350    0.16180    0.22650   1.00
O2       0.33820    0.22650    0.22650   1.00
O2       0.22650    0.27350    0.16180   1.00
O2       0.16180    0.27350    0.22650   1.00
O2       0.22650    0.33820    0.22650   1.00
O2       0.22650    0.16180    0.27350   1.00
O2       0.16180    0.22650    0.27350   1.00
O2       0.22650    0.22650    0.33820   1.00
O2       0.33820    0.27350    0.27350   1.00
O2       0.27350    0.33820    0.27350   1.00
O2       0.27350    0.27350    0.33820   1.00
C1       0.25000    0.25000    0.14480   1.00
C1       0.25000    0.14480    0.25000   1.00
C1       0.35520    0.25000    0.25000   1.00
C1       0.14480    0.25000    0.25000   1.00
C1       0.25000    0.35520    0.25000   1.00
C1       0.25000    0.25000    0.35520   1.00
O1       0.75000    0.75000    0.25000   1.00
Zn1      0.78280    0.71720    0.21720   1.00
Zn1      0.71720    0.78280    0.21720   1.00
Zn1      0.71720    0.71720    0.28280   1.00
Zn1      0.78280    0.78280    0.28280   1.00
O2       0.77350    0.72650    0.16180   1.00
O2       0.77350    0.66180    0.22650   1.00
O2       0.83820    0.72650    0.22650   1.00
O2       0.72650    0.77350    0.16180   1.00
O2       0.66180    0.77350    0.22650   1.00
O2       0.72650    0.83820    0.22650   1.00
O2       0.72650    0.66180    0.27350   1.00
O2       0.66180    0.72650    0.27350   1.00
O2       0.72650    0.72650    0.33820   1.00
O2       0.83820    0.77350    0.27350   1.00
O2       0.77350    0.83820    0.27350   1.00
O2       0.77350    0.77350    0.33820   1.00
C1       0.75000    0.75000    0.14480   1.00
C1       0.75000    0.64480    0.25000   1.00
C1       0.85520    0.75000    0.25000   1.00
C1       0.64480    0.75000    0.25000   1.00
C1       0.75000    0.85520    0.25000   1.00
C1       0.75000    0.75000    0.35520   1.00
O1       0.75000    0.25000    0.75000   1.00
Zn1      0.78280    0.21720    0.71720   1.00
Zn1      0.71720    0.28280    0.71720   1.00
Zn1      0.71720    0.21720    0.78280   1.00
Zn1      0.78280    0.28280    0.78280   1.00
O2       0.77350    0.22650    0.66180   1.00
O2       0.77350    0.16180    0.72650   1.00
O2       0.83820    0.22650    0.72650   1.00
O2       0.72650    0.27350    0.66180   1.00
O2       0.66180    0.27350    0.72650   1.00
O2       0.72650    0.33820    0.72650   1.00
O2       0.72650    0.16180    0.77350   1.00
O2       0.66180    0.22650    0.77350   1.00
O2       0.72650    0.22650    0.83820   1.00
O2       0.83820    0.27350    0.77350   1.00
O2       0.77350    0.33820    0.77350   1.00
O2       0.77350    0.27350    0.83820   1.00
C1       0.75000    0.25000    0.64480   1.00
C1       0.75000    0.14480    0.75000   1.00
C1       0.85520    0.25000    0.75000   1.00
C1       0.64480    0.25000    0.75000   1.00
C1       0.75000    0.35520    0.75000   1.00
C1       0.75000    0.25000    0.85520   1.00
O1       0.25000    0.75000    0.75000   1.00
Zn1      0.28280    0.71720    0.71720   1.00
Zn1      0.21720    0.78280    0.71720   1.00
Zn1      0.21720    0.71720    0.78280   1.00
Zn1      0.28280    0.78280    0.78280   1.00
O2       0.27350    0.72650    0.66180   1.00
O2       0.27350    0.66180    0.72650   1.00
O2       0.33820    0.72650    0.72650   1.00
O2       0.22650    0.77350    0.66180   1.00
O2       0.16180    0.77350    0.72650   1.00
O2       0.22650    0.83820    0.72650   1.00
O2       0.22650    0.66180    0.77350   1.00
O2       0.16180    0.72650    0.77350   1.00
O2       0.22650    0.72650    0.83820   1.00
O2       0.33820    0.77350    0.77350   1.00
O2       0.27350    0.83820    0.77350   1.00
O2       0.27350    0.77350    0.83820   1.00
C1       0.25000    0.75000    0.64480   1.00
C1       0.25000    0.64480    0.75000   1.00
C1       0.35520    0.75000    0.75000   1.00
C1       0.14480    0.75000    0.75000   1.00
C1       0.25000    0.85520    0.75000   1.00
C1       0.25000    0.75000    0.85520   1.00
O1       1.00000    1.00000    1.00000   1.00
Zn1      0.96720    1.03280    1.03280   1.00
Zn1      1.03280    0.96720    1.03280   1.00
Zn1      1.03280    1.03280    0.96720   1.00
Zn1      0.96720    0.96720    0.96720   1.00
O2       0.97650    1.02350    1.08820   1.00
O2       0.97650    1.08820    1.02350   1.00
O2       0.91180    1.02350    1.02350   1.00
O2       1.02350    0.97650    1.08820   1.00
O2       1.08820    0.97650    1.02350   1.00
O2       1.02350    0.91180    1.02350   1.00
O2       1.02350    1.08820    0.97650   1.00
O2       1.08820    1.02350    0.97650   1.00
O2       1.02350    1.02350    0.91180   1.00
O2       0.91180    0.97650    0.97650   1.00
O2       0.97650    0.91180    0.97650   1.00
O2       0.97650    0.97650    0.91180   1.00
C1       1.00000    1.00000    1.10520   1.00
C1       1.00000    1.10520    1.00000   1.00
C1       0.89480    1.00000    1.00000   1.00
C1       1.10520    1.00000    1.00000   1.00
C1       1.00000    0.89480    1.00000   1.00
C1       1.00000    1.00000    0.89480   1.00
O1       0.50000    0.50000    1.00000   1.00
Zn1      0.46720    0.53280    1.03280   1.00
Zn1      0.53280    0.46720    1.03280   1.00
Zn1      0.53280    0.53280    0.96720   1.00
Zn1      0.46720    0.46720    0.96720   1.00
O2       0.47650    0.52350    1.08820   1.00
O2       0.47650    0.58820    1.02350   1.00
O2       0.41180    0.52350    1.02350   1.00
O2       0.52350    0.47650    1.08820   1.00
O2       0.58820    0.47650    1.02350   1.00
O2       0.52350    0.41180    1.02350   1.00
O2       0.52350    0.58820    0.97650   1.00
O2       0.58820    0.52350    0.97650   1.00
O2       0.52350    0.52350    0.91180   1.00
O2       0.41180    0.47650    0.97650   1.00
O2       0.47650    0.41180    0.97650   1.00
O2       0.47650    0.47650    0.91180   1.00
C1       0.50000    0.50000    1.10520   1.00
C1       0.50000    0.60520    1.00000   1.00
C1       0.39480    0.50000    1.00000   1.00
C1       0.60520    0.50000    1.00000   1.00
C1       0.50000    0.39480    1.00000   1.00
C1       0.50000    0.50000    0.89480   1.00
O1       0.50000    1.00000    0.50000   1.00
Zn1      0.46720    1.03280    0.53280   1.00
Zn1      0.53280    0.96720    0.53280   1.00
Zn1      0.53280    1.03280    0.46720   1.00
Zn1      0.46720    0.96720    0.46720   1.00
O2       0.47650    1.02350    0.58820   1.00
O2       0.47650    1.08820    0.52350   1.00
O2       0.41180    1.02350    0.52350   1.00
O2       0.52350    0.97650    0.58820   1.00
O2       0.58820    0.97650    0.52350   1.00
O2       0.52350    0.91180    0.52350   1.00
O2       0.52350    1.08820    0.47650   1.00
O2       0.58820    1.02350    0.47650   1.00
O2       0.52350    1.02350    0.41180   1.00
O2       0.41180    0.97650    0.47650   1.00
O2       0.47650    0.91180    0.47650   1.00
O2       0.47650    0.97650    0.41180   1.00
C1       0.50000    1.00000    0.60520   1.00
C1       0.50000    1.10520    0.50000   1.00
C1       0.39480    1.00000    0.50000   1.00
C1       0.60520    1.00000    0.50000   1.00
C1       0.50000    0.89480    0.50000   1.00
C1       0.50000    1.00000    0.39480   1.00
O1       1.00000    0.50000    0.50000   1.00
Zn1      0.96720    0.53280    0.53280   1.00
Zn1      1.03280    0.46720    0.53280   1.00
Zn1      1.03280    0.53280    0.46720   1.00
Zn1      0.96720    0.46720    0.46720   1.00
O2       0.97650    0.52350    0.58820   1.00
O2       0.97650    0.58820    0.52350   1.00
O2       0.91180    0.52350    0.52350   1.00
O2       1.02350    0.47650    0.58820   1.00
O2       1.08820    0.47650    0.52350   1.00
O2       1.02350    0.41180    0.52350   1.00
O2       1.02350    0.58820    0.47650   1.00
O2       1.08820    0.52350    0.47650   1.00
O2       1.02350    0.52350    0.41180   1.00
O2       0.91180    0.47650    0.47650   1.00
O2       0.97650    0.41180    0.47650   1.00
O2       0.97650    0.47650    0.41180   1.00
C1       1.00000    0.50000    0.60520   1.00
C1       1.00000    0.60520    0.50000   1.00
C1       0.89480    0.50000    0.50000   1.00
C1       1.10520    0.50000    0.50000   1.00
C1       1.00000    0.39480    0.50000   1.00
C1       1.00000    0.50000    0.39480   1.00
O1       0.50000    0.50000    0.50000   1.00
Zn1      0.53280    0.46720    0.46720   1.00
Zn1      0.46720    0.53280    0.46720   1.00
Zn1      0.46720    0.46720    0.53280   1.00
Zn1      0.53280    0.53280    0.53280   1.00
O2       0.52350    0.47650    0.41180   1.00
O2       0.52350    0.41180    0.47650   1.00
O2       0.58820    0.47650    0.47650   1.00
O2       0.47650    0.52350    0.41180   1.00
O2       0.41180    0.52350    0.47650   1.00
O2       0.47650    0.58820    0.47650   1.00
O2       0.47650    0.41180    0.52350   1.00
O2       0.41180    0.47650    0.52350   1.00
O2       0.47650    0.47650    0.58820   1.00
O2       0.58820    0.52350    0.52350   1.00
O2       0.52350    0.58820    0.52350   1.00
O2       0.52350    0.52350    0.58820   1.00
C1       0.50000    0.50000    0.39480   1.00
C1       0.50000    0.39480    0.50000   1.00
C1       0.60520    0.50000    0.50000   1.00
C1       0.39480    0.50000    0.50000   1.00
C1       0.50000    0.60520    0.50000   1.00
C1       0.50000    0.50000    0.60520   1.00
O1       1.00000    1.00000    0.50000   1.00
Zn1      1.03280    0.96720    0.46720   1.00
Zn1      0.96720    1.03280    0.46720   1.00
Zn1      0.96720    0.96720    0.53280   1.00
Zn1      1.03280    1.03280    0.53280   1.00
O2       1.02350    0.97650    0.41180   1.00
O2       1.02350    0.91180    0.47650   1.00
O2       1.08820    0.97650    0.47650   1.00
O2       0.97650    1.02350    0.41180   1.00
O2       0.91180    1.02350    0.47650   1.00
O2       0.97650    1.08820    0.47650   1.00
O2       0.97650    0.91180    0.52350   1.00
O2       0.91180    0.97650    0.52350   1.00
O2       0.97650    0.97650    0.58820   1.00
O2       1.08820    1.02350    0.52350   1.00
O2       1.02350    1.08820    0.52350   1.00
O2       1.02350    1.02350    0.58820   1.00
C1       1.00000    1.00000    0.39480   1.00
C1       1.00000    0.89480    0.50000   1.00
C1       1.10520    1.00000    0.50000   1.00
C1       0.89480    1.00000    0.50000   1.00
C1       1.00000    1.10520    0.50000   1.00
C1       1.00000    1.00000    0.60520   1.00
O1       1.00000    0.50000    1.00000   1.00
Zn1      1.03280    0.46720    0.96720   1.00
Zn1      0.96720    0.53280    0.96720   1.00
Zn1      0.96720    0.46720    1.03280   1.00
Zn1      1.03280    0.53280    1.03280   1.00
O2       1.02350    0.47650    0.91180   1.00
O2       1.02350    0.41180    0.97650   1.00
O2       1.08820    0.47650    0.97650   1.00
O2       0.97650    0.52350    0.91180   1.00
O2       0.91180    0.52350    0.97650   1.00
O2       0.97650    0.58820    0.97650   1.00
O2       0.97650    0.41180    1.02350   1.00
O2       0.91180    0.47650    1.02350   1.00
O2       0.97650    0.47650    1.08820   1.00
O2       1.08820    0.52350    1.02350   1.00
O2       1.02350    0.58820    1.02350   1.00
O2       1.02350    0.52350    1.08820   1.00
C1       1.00000    0.50000    0.89480   1.00
C1       1.00000    0.39480    1.00000   1.00
C1       1.10520    0.50000    1.00000   1.00
C1       0.89480    0.50000    1.00000   1.00
C1       1.00000    0.60520    1.00000   1.00
C1       1.00000    0.50000    1.10520   1.00
O1       0.50000    1.00000    1.00000   1.00
Zn1      0.53280    0.96720    0.96720   1.00
Zn1      0.46720    1.03280    0.96720   1.00
Zn1      0.46720    0.96720    1.03280   1.00
Zn1      0.53280    1.03280    1.03280   1.00
O2       0.52350    0.97650    0.91180   1.00
O2       0.52350    0.91180    0.97650   1.00
O2       0.58820    0.97650    0.97650   1.00
O2       0.47650    1.02350    0.91180   1.00
O2       0.41180    1.02350    0.97650   1.00
O2       0.47650    1.08820    0.97650   1.00
O2       0.47650    0.91180    1.02350   1.00
O2       0.41180    0.97650    1.02350   1.00
O2       0.47650    0.97650    1.08820   1.00
O2       0.58820    1.02350    1.02350   1.00
O2       0.52350    1.08820    1.02350   1.00
O2       0.52350    1.02350    1.08820   1.00
C1       0.50000    1.00000    0.89480   1.00
C1       0.50000    0.89480    1.00000   1.00
C1       0.60520    1.00000    1.00000   1.00
C1       0.39480    1.00000    1.00000   1.00
C1       0.50000    1.10520    1.00000   1.00
C1       0.50000    1.00000    1.10520   1.00
C2       0.74928    0.75290    0.89757   1.00
C3a      0.75898    0.78644    0.91884   1.00
H1       0.76624    0.81325    0.90369   1.00
C3a      0.73987    0.71820    0.91704   1.00
H1       0.73238    0.69229    0.90051   1.00
C3b      0.75937    0.78567    0.95938   1.00
C5       0.76993    0.82226    0.98144   1.00
H2       0.79602    0.81697    0.99984   1.00
H2       0.77655    0.84700    0.96161   1.00
H2       0.74539    0.83113    1.00060   1.00
C3b      0.74005    0.71668    0.95756   1.00
C5       0.72979    0.67890    0.97767   1.00
H2       0.70396    0.68313    0.99670   1.00
H2       0.72288    0.65532    0.95655   1.00
H2       0.75458    0.66897    0.99594   1.00
C4       0.74985    0.75060    0.97873   1.00
C4       0.75015    0.74940    1.02127   1.00
C3b      0.78480    0.73918    1.04101   1.00
C5       0.82185    0.72937    1.01937   1.00
H2       0.83112    0.75456    1.00129   1.00
H2       0.84616    0.72204    1.03949   1.00
H2       0.81695    0.70395    0.99995   1.00
C3b      0.71578    0.75847    1.04204   1.00
C5       0.67844    0.76947    1.02152   1.00
H2       0.66890    0.74534    1.00217   1.00
H2       0.65441    0.77565    1.04235   1.00
H2       0.68307    0.79595    1.00350   1.00
C3a      0.78471    0.73813    1.08155   1.00
H1       0.81119    0.73031    1.09700   1.00
C3a      0.71645    0.75722    1.08257   1.00
H1       0.69019    0.76414    1.09881   1.00
C2       0.75072    0.74710    1.10243   1.00
C2       0.75290    0.89757    0.74928   1.00
C3a      0.78644    0.91884    0.75898   1.00
H1       0.81325    0.90369    0.76624   1.00
C3a      0.71820    0.91704    0.73987   1.00
H1       0.69229    0.90051    0.73238   1.00
C3b      0.78567    0.95938    0.75937   1.00
C5       0.82226    0.98144    0.76993   1.00
H2       0.81697    0.99984    0.79602   1.00
H2       0.84700    0.96161    0.77655   1.00
H2       0.83113    1.00060    0.74539   1.00
C3b      0.71668    0.95756    0.74005   1.00
C5       0.67890    0.97767    0.72979   1.00
H2       0.68313    0.99670    0.70396   1.00
H2       0.65532    0.95655    0.72288   1.00
H2       0.66897    0.99594    0.75458   1.00
C4       0.75060    0.97873    0.74985   1.00
C4       0.74940    1.02127    0.75015   1.00
C3b      0.73918    1.04101    0.78480   1.00
C5       0.72937    1.01937    0.82185   1.00
H2       0.75456    1.00129    0.83112   1.00
H2       0.72204    1.03949    0.84616   1.00
H2       0.70395    0.99995    0.81695   1.00
C3b      0.75847    1.04204    0.71578   1.00
C5       0.76947    1.02152    0.67844   1.00
H2       0.74534    1.00217    0.66890   1.00
H2       0.77565    1.04235    0.65441   1.00
H2       0.79595    1.00350    0.68307   1.00
C3a      0.73813    1.08155    0.78471   1.00
H1       0.73031    1.09700    0.81119   1.00
C3a      0.75722    1.08257    0.71645   1.00
H1       0.76414    1.09881    0.69019   1.00
C2       0.74710    1.10243    0.75072   1.00
C2       0.60243    0.74928    0.74710   1.00
C3a      0.58116    0.75898    0.71356   1.00
H1       0.59631    0.76624    0.68675   1.00
C3a      0.58296    0.73987    0.78180   1.00
H1       0.59949    0.73238    0.80771   1.00
C3b      0.54062    0.75937    0.71433   1.00
C5       0.51856    0.76993    0.67774   1.00
H2       0.50016    0.79602    0.68303   1.00
H2       0.53839    0.77655    0.65300   1.00
H2       0.49940    0.74539    0.66887   1.00
C3b      0.54244    0.74005    0.78332   1.00
C5       0.52233    0.72979    0.82110   1.00
H2       0.50330    0.70396    0.81687   1.00
H2       0.54345    0.72288    0.84468   1.00
H2       0.50406    0.75458    0.83103   1.00
C4       0.52127    0.74985    0.74940   1.00
C4       0.47873    0.75015    0.75060   1.00
C3b      0.45899    0.78480    0.76082   1.00
C5       0.48063    0.82185    0.77063   1.00
H2       0.49871    0.83112    0.74544   1.00
H2       0.46051    0.84616    0.77796   1.00
H2       0.50005    0.81695    0.79605   1.00
C3b      0.45796    0.71578    0.74153   1.00
C5       0.47848    0.67844    0.73053   1.00
H2       0.49783    0.66890    0.75466   1.00
H2       0.45765    0.65441    0.72435   1.00
H2       0.49650    0.68307    0.70405   1.00
C3a      0.41845    0.78471    0.76187   1.00
H1       0.40300    0.81119    0.76969   1.00
C3a      0.41743    0.71645    0.74278   1.00
H1       0.40119    0.69019    0.73586   1.00
C2       0.39757    0.75072    0.75290   1.00
C2       0.89757    0.74928    0.75290   1.00
C3a      0.91884    0.75898    0.78644   1.00
H1       0.90369    0.76624    0.81325   1.00
C3a      0.91704    0.73987    0.71820   1.00
H1       0.90051    0.73238    0.69229   1.00
C3b      0.95938    0.75937    0.78567   1.00
C5       0.98144    0.76993    0.82226   1.00
H2       0.99984    0.79602    0.81697   1.00
H2       0.96161    0.77655    0.84700   1.00
H2       1.00060    0.74539    0.83113   1.00
C3b      0.95756    0.74005    0.71668   1.00
C5       0.97767    0.72979    0.67890   1.00
H2       0.99670    0.70396    0.68313   1.00
H2       0.95655    0.72288    0.65532   1.00
H2       0.99594    0.75458    0.66897   1.00
C4       0.97873    0.74985    0.75060   1.00
C4       1.02127    0.75015    0.74940   1.00
C3b      1.04101    0.78480    0.73918   1.00
C5       1.01937    0.82185    0.72937   1.00
H2       1.00129    0.83112    0.75456   1.00
H2       1.03949    0.84616    0.72204   1.00
H2       0.99995    0.81695    0.70395   1.00
C3b      1.04204    0.71578    0.75847   1.00
C5       1.02152    0.67844    0.76947   1.00
H2       1.00217    0.66890    0.74534   1.00
H2       1.04235    0.65441    0.77565   1.00
H2       1.00350    0.68307    0.79595   1.00
C3a      1.08155    0.78471    0.73813   1.00
H1       1.09700    0.81119    0.73031   1.00
C3a      1.08257    0.71645    0.75722   1.00
H1       1.09881    0.69019    0.76414   1.00
C2       1.10243    0.75072    0.74710   1.00
C2       0.74710    0.60243    0.74928   1.00
C3a      0.71356    0.58116    0.75898   1.00
H1       0.68675    0.59631    0.76624   1.00
C3a      0.78180    0.58296    0.73987   1.00
H1       0.80771    0.59949    0.73238   1.00
C3b      0.71433    0.54062    0.75937   1.00
C5       0.67774    0.51856    0.76993   1.00
H2       0.68303    0.50016    0.79602   1.00
H2       0.65300    0.53839    0.77655   1.00
H2       0.66887    0.49940    0.74539   1.00
C3b      0.78332    0.54244    0.74005   1.00
C5       0.82110    0.52233    0.72979   1.00
H2       0.81687    0.50330    0.70396   1.00
H2       0.84468    0.54345    0.72288   1.00
H2       0.83103    0.50406    0.75458   1.00
C4       0.74940    0.52127    0.74985   1.00
C4       0.75060    0.47873    0.75015   1.00
C3b      0.76082    0.45899    0.78480   1.00
C5       0.77063    0.48063    0.82185   1.00
H2       0.74544    0.49871    0.83112   1.00
H2       0.77796    0.46051    0.84616   1.00
H2       0.79605    0.50005    0.81695   1.00
C3b      0.74153    0.45796    0.71578   1.00
C5       0.73053    0.47848    0.67844   1.00
H2       0.75466    0.49783    0.66890   1.00
H2       0.72435    0.45765    0.65441   1.00
H2       0.70405    0.49650    0.68307   1.00
C3a      0.76187    0.41845    0.78471   1.00
H1       0.76969    0.40300    0.81119   1.00
C3a      0.74278    0.41743    0.71645   1.00
H1       0.73586    0.40119    0.69019   1.00
C2       0.75290    0.39757    0.75072   1.00
C2       0.74928    0.74710    0.60243   1.00
C3a      0.75898    0.71356    0.58116   1.00
H1       0.76624    0.68675    0.59631   1.00
C3a      0.73987    0.78180    0.58296   1.00
H1       0.73238    0.80771    0.59949   1.00
C3b      0.75937    0.71433    0.54062   1.00
C5       0.76993    0.67774    0.51856   1.00
H2       0.79602    0.68303    0.50016   1.00
H2       0.77655    0.65300    0.53839   1.00
H2       0.74539    0.66887    0.49940   1.00
C3b      0.74005    0.78332    0.54244   1.00
C5       0.72979    0.82110    0.52233   1.00
H2       0.70396    0.81687    0.50330   1.00
H2       0.72288    0.84468    0.54345   1.00
H2       0.75458    0.83103    0.50406   1.00
C4       0.74985    0.74940    0.52127   1.00
C4       0.75015    0.75060    0.47873   1.00
C3b      0.78480    0.76082    0.45899   1.00
C5       0.82185    0.77063    0.48063   1.00
H2       0.83112    0.74544    0.49871   1.00
H2       0.84616    0.77796    0.46051   1.00
H2       0.81695    0.79605    0.50005   1.00
C3b      0.71578    0.74153    0.45796   1.00
C5       0.67844    0.73053    0.47848   1.00
H2       0.66890    0.75466    0.49783   1.00
H2       0.65441    0.72435    0.45765   1.00
H2       0.68307    0.70405    0.49650   1.00
C3a      0.78471    0.76187    0.41845   1.00
H1       0.81119    0.76969    0.40300   1.00
C3a      0.71645    0.74278    0.41743   1.00
H1       0.69019    0.73586    0.40119   1.00
C2       0.75072    0.75290    0.39757   1.00
C2       0.24928    0.25290    0.89757   1.00
C3a      0.25898    0.28644    0.91884   1.00
H1       0.26624    0.31325    0.90369   1.00
C3a      0.23987    0.21820    0.91704   1.00
H1       0.23238    0.19229    0.90051   1.00
C3b      0.25937    0.28567    0.95938   1.00
C5       0.26993    0.32226    0.98144   1.00
H2       0.29602    0.31697    0.99984   1.00
H2       0.27655    0.34700    0.96161   1.00
H2       0.24539    0.33113    1.00060   1.00
C3b      0.24005    0.21668    0.95756   1.00
C5       0.22979    0.17890    0.97767   1.00
H2       0.20396    0.18313    0.99670   1.00
H2       0.22288    0.15532    0.95655   1.00
H2       0.25458    0.16897    0.99594   1.00
C4       0.24985    0.25060    0.97873   1.00
C4       0.25015    0.24940    1.02127   1.00
C3b      0.28480    0.23918    1.04101   1.00
C5       0.32185    0.22937    1.01937   1.00
H2       0.33112    0.25456    1.00129   1.00
H2       0.34616    0.22204    1.03949   1.00
H2       0.31695    0.20395    0.99995   1.00
C3b      0.21578    0.25847    1.04204   1.00
C5       0.17844    0.26947    1.02152   1.00
H2       0.16890    0.24534    1.00217   1.00
H2       0.15441    0.27565    1.04235   1.00
H2       0.18307    0.29595    1.00350   1.00
C3a      0.28471    0.23813    1.08155   1.00
H1       0.31119    0.23031    1.09700   1.00
C3a      0.21645    0.25722    1.08257   1.00
H1       0.19019    0.26414    1.09881   1.00
C2       0.25072    0.24710    1.10243   1.00
C2       0.25290    0.39757    0.74928   1.00
C3a      0.28644    0.41884    0.75898   1.00
H1       0.31325    0.40369    0.76624   1.00
C3a      0.21820    0.41704    0.73987   1.00
H1       0.19229    0.40051    0.73238   1.00
C3b      0.28567    0.45938    0.75937   1.00
C5       0.32226    0.48144    0.76993   1.00
H2       0.31697    0.49984    0.79602   1.00
H2       0.34700    0.46161    0.77655   1.00
H2       0.33113    0.50060    0.74539   1.00
C3b      0.21668    0.45756    0.74005   1.00
C5       0.17890    0.47767    0.72979   1.00
H2       0.18313    0.49670    0.70396   1.00
H2       0.15532    0.45655    0.72288   1.00
H2       0.16897    0.49594    0.75458   1.00
C4       0.25060    0.47873    0.74985   1.00
C4       0.24940    0.52127    0.75015   1.00
C3b      0.23918    0.54101    0.78480   1.00
C5       0.22937    0.51937    0.82185   1.00
H2       0.25456    0.50129    0.83112   1.00
H2       0.22204    0.53949    0.84616   1.00
H2       0.20395    0.49995    0.81695   1.00
C3b      0.25847    0.54204    0.71578   1.00
C5       0.26947    0.52152    0.67844   1.00
H2       0.24534    0.50217    0.66890   1.00
H2       0.27565    0.54235    0.65441   1.00
H2       0.29595    0.50350    0.68307   1.00
C3a      0.23813    0.58155    0.78471   1.00
H1       0.23031    0.59700    0.81119   1.00
C3a      0.25722    0.58257    0.71645   1.00
H1       0.26414    0.59881    0.69019   1.00
C2       0.24710    0.60243    0.75072   1.00
C2       0.10243    0.24928    0.74710   1.00
C3a      0.08116    0.25898    0.71356   1.00
H1       0.09631    0.26624    0.68675   1.00
C3a      0.08296    0.23987    0.78180   1.00
H1       0.09949    0.23238    0.80771   1.00
C3b      0.04062    0.25937    0.71433   1.00
C5       0.01856    0.26993    0.67774   1.00
H2       0.00016    0.29602    0.68303   1.00
H2       0.03839    0.27655    0.65300   1.00
H2       -0.00060   0.24539    0.66887   1.00
C3b      0.04244    0.24005    0.78332   1.00
C5       0.02233    0.22979    0.82110   1.00
H2       0.00330    0.20396    0.81687   1.00
H2       0.04345    0.22288    0.84468   1.00
H2       0.00406    0.25458    0.83103   1.00
C4       0.02127    0.24985    0.74940   1.00
C4       -0.02127   0.25015    0.75060   1.00
C3b      -0.04101   0.28480    0.76082   1.00
C5       -0.01937   0.32185    0.77063   1.00
H2       -0.00129   0.33112    0.74544   1.00
H2       -0.03949   0.34616    0.77796   1.00
H2       0.00005    0.31695    0.79605   1.00
C3b      -0.04204   0.21578    0.74153   1.00
C5       -0.02152   0.17844    0.73053   1.00
H2       -0.00217   0.16890    0.75466   1.00
H2       -0.04235   0.15441    0.72435   1.00
H2       -0.00350   0.18307    0.70405   1.00
C3a      -0.08155   0.28471    0.76187   1.00
H1       -0.09700   0.31119    0.76969   1.00
C3a      -0.08257   0.21645    0.74278   1.00
H1       -0.09881   0.19019    0.73586   1.00
C2       -0.10243   0.25072    0.75290   1.00
C2       0.39757    0.24928    0.75290   1.00
C3a      0.41884    0.25898    0.78644   1.00
H1       0.40369    0.26624    0.81325   1.00
C3a      0.41704    0.23987    0.71820   1.00
H1       0.40051    0.23238    0.69229   1.00
C3b      0.45938    0.25937    0.78567   1.00
C5       0.48144    0.26993    0.82226   1.00
H2       0.49984    0.29602    0.81697   1.00
H2       0.46161    0.27655    0.84700   1.00
H2       0.50060    0.24539    0.83113   1.00
C3b      0.45756    0.24005    0.71668   1.00
C5       0.47767    0.22979    0.67890   1.00
H2       0.49670    0.20396    0.68313   1.00
H2       0.45655    0.22288    0.65532   1.00
H2       0.49594    0.25458    0.66897   1.00
C4       0.47873    0.24985    0.75060   1.00
C4       0.52127    0.25015    0.74940   1.00
C3b      0.54101    0.28480    0.73918   1.00
C5       0.51937    0.32185    0.72937   1.00
H2       0.50129    0.33112    0.75456   1.00
H2       0.53949    0.34616    0.72204   1.00
H2       0.49995    0.31695    0.70395   1.00
C3b      0.54204    0.21578    0.75847   1.00
C5       0.52152    0.17844    0.76947   1.00
H2       0.50217    0.16890    0.74534   1.00
H2       0.54235    0.15441    0.77565   1.00
H2       0.50350    0.18307    0.79595   1.00
C3a      0.58155    0.28471    0.73813   1.00
H1       0.59700    0.31119    0.73031   1.00
C3a      0.58257    0.21645    0.75722   1.00
H1       0.59881    0.19019    0.76414   1.00
C2       0.60243    0.25072    0.74710   1.00
C2       0.24710    0.10243    0.74928   1.00
C3a      0.21356    0.08116    0.75898   1.00
H1       0.18675    0.09631    0.76624   1.00
C3a      0.28180    0.08296    0.73987   1.00
H1       0.30771    0.09949    0.73238   1.00
C3b      0.21433    0.04062    0.75937   1.00
C5       0.17774    0.01856    0.76993   1.00
H2       0.18303    0.00016    0.79602   1.00
H2       0.15300    0.03839    0.77655   1.00
H2       0.16887    -0.00060   0.74539   1.00
C3b      0.28332    0.04244    0.74005   1.00
C5       0.32110    0.02233    0.72979   1.00
H2       0.31687    0.00330    0.70396   1.00
H2       0.34468    0.04345    0.72288   1.00
H2       0.33103    0.00406    0.75458   1.00
C4       0.24940    0.02127    0.74985   1.00
C4       0.25060    -0.02127   0.75015   1.00
C3b      0.26082    -0.04101   0.78480   1.00
C5       0.27063    -0.01937   0.82185   1.00
H2       0.24544    -0.00129   0.83112   1.00
H2       0.27796    -0.03949   0.84616   1.00
H2       0.29605    0.00005    0.81695   1.00
C3b      0.24153    -0.04204   0.71578   1.00
C5       0.23053    -0.02152   0.67844   1.00
H2       0.25466    -0.00217   0.66890   1.00
H2       0.22435    -0.04235   0.65441   1.00
H2       0.20405    -0.00350   0.68307   1.00
C3a      0.26187    -0.08155   0.78471   1.00
H1       0.26969    -0.09700   0.81119   1.00
C3a      0.24278    -0.08257   0.71645   1.00
H1       0.23586    -0.09881   0.69019   1.00
C2       0.25290    -0.10243   0.75072   1.00
C2       0.24928    0.24710    0.60243   1.00
C3a      0.25898    0.21356    0.58116   1.00
H1       0.26624    0.18675    0.59631   1.00
C3a      0.23987    0.28180    0.58296   1.00
H1       0.23238    0.30771    0.59949   1.00
C3b      0.25937    0.21433    0.54062   1.00
C5       0.26993    0.17774    0.51856   1.00
H2       0.29602    0.18303    0.50016   1.00
H2       0.27655    0.15300    0.53839   1.00
H2       0.24539    0.16887    0.49940   1.00
C3b      0.24005    0.28332    0.54244   1.00
C5       0.22979    0.32110    0.52233   1.00
H2       0.20396    0.31687    0.50330   1.00
H2       0.22288    0.34468    0.54345   1.00
H2       0.25458    0.33103    0.50406   1.00
C4       0.24985    0.24940    0.52127   1.00
C4       0.25015    0.25060    0.47873   1.00
C3b      0.28480    0.26082    0.45899   1.00
C5       0.32185    0.27063    0.48063   1.00
H2       0.33112    0.24544    0.49871   1.00
H2       0.34616    0.27796    0.46051   1.00
H2       0.31695    0.29605    0.50005   1.00
C3b      0.21578    0.24153    0.45796   1.00
C5       0.17844    0.23053    0.47848   1.00
H2       0.16890    0.25466    0.49783   1.00
H2       0.15441    0.22435    0.45765   1.00
H2       0.18307    0.20405    0.49650   1.00
C3a      0.28471    0.26187    0.41845   1.00
H1       0.31119    0.26969    0.40300   1.00
C3a      0.21645    0.24278    0.41743   1.00
H1       0.19019    0.23586    0.40119   1.00
C2       0.25072    0.25290    0.39757   1.00
C2       0.24928    0.75290    0.39757   1.00
C3a      0.25898    0.78644    0.41884   1.00
H1       0.26624    0.81325    0.40369   1.00
C3a      0.23987    0.71820    0.41704   1.00
H1       0.23238    0.69229    0.40051   1.00
C3b      0.25937    0.78567    0.45938   1.00
C5       0.26993    0.82226    0.48144   1.00
H2       0.29602    0.81697    0.49984   1.00
H2       0.27655    0.84700    0.46161   1.00
H2       0.24539    0.83113    0.50060   1.00
C3b      0.24005    0.71668    0.45756   1.00
C5       0.22979    0.67890    0.47767   1.00
H2       0.20396    0.68313    0.49670   1.00
H2       0.22288    0.65532    0.45655   1.00
H2       0.25458    0.66897    0.49594   1.00
C4       0.24985    0.75060    0.47873   1.00
C4       0.25015    0.74940    0.52127   1.00
C3b      0.28480    0.73918    0.54101   1.00
C5       0.32185    0.72937    0.51937   1.00
H2       0.33112    0.75456    0.50129   1.00
H2       0.34616    0.72204    0.53949   1.00
H2       0.31695    0.70395    0.49995   1.00
C3b      0.21578    0.75847    0.54204   1.00
C5       0.17844    0.76947    0.52152   1.00
H2       0.16890    0.74534    0.50217   1.00
H2       0.15441    0.77565    0.54235   1.00
H2       0.18307    0.79595    0.50350   1.00
C3a      0.28471    0.73813    0.58155   1.00
H1       0.31119    0.73031    0.59700   1.00
C3a      0.21645    0.75722    0.58257   1.00
H1       0.19019    0.76414    0.59881   1.00
C2       0.25072    0.74710    0.60243   1.00
C2       0.25290    0.89757    0.24928   1.00
C3a      0.28644    0.91884    0.25898   1.00
H1       0.31325    0.90369    0.26624   1.00
C3a      0.21820    0.91704    0.23987   1.00
H1       0.19229    0.90051    0.23238   1.00
C3b      0.28567    0.95938    0.25937   1.00
C5       0.32226    0.98144    0.26993   1.00
H2       0.31697    0.99984    0.29602   1.00
H2       0.34700    0.96161    0.27655   1.00
H2       0.33113    1.00060    0.24539   1.00
C3b      0.21668    0.95756    0.24005   1.00
C5       0.17890    0.97767    0.22979   1.00
H2       0.18313    0.99670    0.20396   1.00
H2       0.15532    0.95655    0.22288   1.00
H2       0.16897    0.99594    0.25458   1.00
C4       0.25060    0.97873    0.24985   1.00
C4       0.24940    1.02127    0.25015   1.00
C3b      0.23918    1.04101    0.28480   1.00
C5       0.22937    1.01937    0.32185   1.00
H2       0.25456    1.00129    0.33112   1.00
H2       0.22204    1.03949    0.34616   1.00
H2       0.20395    0.99995    0.31695   1.00
C3b      0.25847    1.04204    0.21578   1.00
C5       0.26947    1.02152    0.17844   1.00
H2       0.24534    1.00217    0.16890   1.00
H2       0.27565    1.04235    0.15441   1.00
H2       0.29595    1.00350    0.18307   1.00
C3a      0.23813    1.08155    0.28471   1.00
H1       0.23031    1.09700    0.31119   1.00
C3a      0.25722    1.08257    0.21645   1.00
H1       0.26414    1.09881    0.19019   1.00
C2       0.24710    1.10243    0.25072   1.00
C2       0.10243    0.74928    0.24710   1.00
C3a      0.08116    0.75898    0.21356   1.00
H1       0.09631    0.76624    0.18675   1.00
C3a      0.08296    0.73987    0.28180   1.00
H1       0.09949    0.73238    0.30771   1.00
C3b      0.04062    0.75937    0.21433   1.00
C5       0.01856    0.76993    0.17774   1.00
H2       0.00016    0.79602    0.18303   1.00
H2       0.03839    0.77655    0.15300   1.00
H2       -0.00060   0.74539    0.16887   1.00
C3b      0.04244    0.74005    0.28332   1.00
C5       0.02233    0.72979    0.32110   1.00
H2       0.00330    0.70396    0.31687   1.00
H2       0.04345    0.72288    0.34468   1.00
H2       0.00406    0.75458    0.33103   1.00
C4       0.02127    0.74985    0.24940   1.00
C4       -0.02127   0.75015    0.25060   1.00
C3b      -0.04101   0.78480    0.26082   1.00
C5       -0.01937   0.82185    0.27063   1.00
H2       -0.00129   0.83112    0.24544   1.00
H2       -0.03949   0.84616    0.27796   1.00
H2       0.00005    0.81695    0.29605   1.00
C3b      -0.04204   0.71578    0.24153   1.00
C5       -0.02152   0.67844    0.23053   1.00
H2       -0.00217   0.66890    0.25466   1.00
H2       -0.04235   0.65441    0.22435   1.00
H2       -0.00350   0.68307    0.20405   1.00
C3a      -0.08155   0.78471    0.26187   1.00
H1       -0.09700   0.81119    0.26969   1.00
C3a      -0.08257   0.71645    0.24278   1.00
H1       -0.09881   0.69019    0.23586   1.00
C2       -0.10243   0.75072    0.25290   1.00
C2       0.39757    0.74928    0.25290   1.00
C3a      0.41884    0.75898    0.28644   1.00
H1       0.40369    0.76624    0.31325   1.00
C3a      0.41704    0.73987    0.21820   1.00
H1       0.40051    0.73238    0.19229   1.00
C3b      0.45938    0.75937    0.28567   1.00
C5       0.48144    0.76993    0.32226   1.00
H2       0.49984    0.79602    0.31697   1.00
H2       0.46161    0.77655    0.34700   1.00
H2       0.50060    0.74539    0.33113   1.00
C3b      0.45756    0.74005    0.21668   1.00
C5       0.47767    0.72979    0.17890   1.00
H2       0.49670    0.70396    0.18313   1.00
H2       0.45655    0.72288    0.15532   1.00
H2       0.49594    0.75458    0.16897   1.00
C4       0.47873    0.74985    0.25060   1.00
C4       0.52127    0.75015    0.24940   1.00
C3b      0.54101    0.78480    0.23918   1.00
C5       0.51937    0.82185    0.22937   1.00
H2       0.50129    0.83112    0.25456   1.00
H2       0.53949    0.84616    0.22204   1.00
H2       0.49995    0.81695    0.20395   1.00
C3b      0.54204    0.71578    0.25847   1.00
C5       0.52152    0.67844    0.26947   1.00
H2       0.50217    0.66890    0.24534   1.00
H2       0.54235    0.65441    0.27565   1.00
H2       0.50350    0.68307    0.29595   1.00
C3a      0.58155    0.78471    0.23813   1.00
H1       0.59700    0.81119    0.23031   1.00
C3a      0.58257    0.71645    0.25722   1.00
H1       0.59881    0.69019    0.26414   1.00
C2       0.60243    0.75072    0.24710   1.00
C2       0.24710    0.60243    0.24928   1.00
C3a      0.21356    0.58116    0.25898   1.00
H1       0.18675    0.59631    0.26624   1.00
C3a      0.28180    0.58296    0.23987   1.00
H1       0.30771    0.59949    0.23238   1.00
C3b      0.21433    0.54062    0.25937   1.00
C5       0.17774    0.51856    0.26993   1.00
H2       0.18303    0.50016    0.29602   1.00
H2       0.15300    0.53839    0.27655   1.00
H2       0.16887    0.49940    0.24539   1.00
C3b      0.28332    0.54244    0.24005   1.00
C5       0.32110    0.52233    0.22979   1.00
H2       0.31687    0.50330    0.20396   1.00
H2       0.34468    0.54345    0.22288   1.00
H2       0.33103    0.50406    0.25458   1.00
C4       0.24940    0.52127    0.24985   1.00
C4       0.25060    0.47873    0.25015   1.00
C3b      0.26082    0.45899    0.28480   1.00
C5       0.27063    0.48063    0.32185   1.00
H2       0.24544    0.49871    0.33112   1.00
H2       0.27796    0.46051    0.34616   1.00
H2       0.29605    0.50005    0.31695   1.00
C3b      0.24153    0.45796    0.21578   1.00
C5       0.23053    0.47848    0.17844   1.00
H2       0.25466    0.49783    0.16890   1.00
H2       0.22435    0.45765    0.15441   1.00
H2       0.20405    0.49650    0.18307   1.00
C3a      0.26187    0.41845    0.28471   1.00
H1       0.26969    0.40300    0.31119   1.00
C3a      0.24278    0.41743    0.21645   1.00
H1       0.23586    0.40119    0.19019   1.00
C2       0.25290    0.39757    0.25072   1.00
C2       0.24928    0.74710    0.10243   1.00
C3a      0.25898    0.71356    0.08116   1.00
H1       0.26624    0.68675    0.09631   1.00
C3a      0.23987    0.78180    0.08296   1.00
H1       0.23238    0.80771    0.09949   1.00
C3b      0.25937    0.71433    0.04062   1.00
C5       0.26993    0.67774    0.01856   1.00
H2       0.29602    0.68303    0.00016   1.00
H2       0.27655    0.65300    0.03839   1.00
H2       0.24539    0.66887    -0.00060   1.00
C3b      0.24005    0.78332    0.04244   1.00
C5       0.22979    0.82110    0.02233   1.00
H2       0.20396    0.81687    0.00330   1.00
H2       0.22288    0.84468    0.04345   1.00
H2       0.25458    0.83103    0.00406   1.00
C4       0.24985    0.74940    0.02127   1.00
C4       0.25015    0.75060    -0.02127   1.00
C3b      0.28480    0.76082    -0.04101   1.00
C5       0.32185    0.77063    -0.01937   1.00
H2       0.33112    0.74544    -0.00129   1.00
H2       0.34616    0.77796    -0.03949   1.00
H2       0.31695    0.79605    0.00005   1.00
C3b      0.21578    0.74153    -0.04204   1.00
C5       0.17844    0.73053    -0.02152   1.00
H2       0.16890    0.75466    -0.00217   1.00
H2       0.15441    0.72435    -0.04235   1.00
H2       0.18307    0.70405    -0.00350   1.00
C3a      0.28471    0.76187    -0.08155   1.00
H1       0.31119    0.76969    -0.09700   1.00
C3a      0.21645    0.74278    -0.08257   1.00
H1       0.19019    0.73586    -0.09881   1.00
C2       0.25072    0.75290    -0.10243   1.00
C2       0.74928    0.25290    0.39757   1.00
C3a      0.75898    0.28644    0.41884   1.00
H1       0.76624    0.31325    0.40369   1.00
C3a      0.73987    0.21820    0.41704   1.00
H1       0.73238    0.19229    0.40051   1.00
C3b      0.75937    0.28567    0.45938   1.00
C5       0.76993    0.32226    0.48144   1.00
H2       0.79602    0.31697    0.49984   1.00
H2       0.77655    0.34700    0.46161   1.00
H2       0.74539    0.33113    0.50060   1.00
C3b      0.74005    0.21668    0.45756   1.00
C5       0.72979    0.17890    0.47767   1.00
H2       0.70396    0.18313    0.49670   1.00
H2       0.72288    0.15532    0.45655   1.00
H2       0.75458    0.16897    0.49594   1.00
C4       0.74985    0.25060    0.47873   1.00
C4       0.75015    0.24940    0.52127   1.00
C3b      0.78480    0.23918    0.54101   1.00
C5       0.82185    0.22937    0.51937   1.00
H2       0.83112    0.25456    0.50129   1.00
H2       0.84616    0.22204    0.53949   1.00
H2       0.81695    0.20395    0.49995   1.00
C3b      0.71578    0.25847    0.54204   1.00
C5       0.67844    0.26947    0.52152   1.00
H2       0.66890    0.24534    0.50217   1.00
H2       0.65441    0.27565    0.54235   1.00
H2       0.68307    0.29595    0.50350   1.00
C3a      0.78471    0.23813    0.58155   1.00
H1       0.81119    0.23031    0.59700   1.00
C3a      0.71645    0.25722    0.58257   1.00
H1       0.69019    0.26414    0.59881   1.00
C2       0.75072    0.24710    0.60243   1.00
C2       0.75290    0.39757    0.24928   1.00
C3a      0.78644    0.41884    0.25898   1.00
H1       0.81325    0.40369    0.26624   1.00
C3a      0.71820    0.41704    0.23987   1.00
H1       0.69229    0.40051    0.23238   1.00
C3b      0.78567    0.45938    0.25937   1.00
C5       0.82226    0.48144    0.26993   1.00
H2       0.81697    0.49984    0.29602   1.00
H2       0.84700    0.46161    0.27655   1.00
H2       0.83113    0.50060    0.24539   1.00
C3b      0.71668    0.45756    0.24005   1.00
C5       0.67890    0.47767    0.22979   1.00
H2       0.68313    0.49670    0.20396   1.00
H2       0.65532    0.45655    0.22288   1.00
H2       0.66897    0.49594    0.25458   1.00
C4       0.75060    0.47873    0.24985   1.00
C4       0.74940    0.52127    0.25015   1.00
C3b      0.73918    0.54101    0.28480   1.00
C5       0.72937    0.51937    0.32185   1.00
H2       0.75456    0.50129    0.33112   1.00
H2       0.72204    0.53949    0.34616   1.00
H2       0.70395    0.49995    0.31695   1.00
C3b      0.75847    0.54204    0.21578   1.00
C5       0.76947    0.52152    0.17844   1.00
H2       0.74534    0.50217    0.16890   1.00
H2       0.77565    0.54235    0.15441   1.00
H2       0.79595    0.50350    0.18307   1.00
C3a      0.73813    0.58155    0.28471   1.00
H1       0.73031    0.59700    0.31119   1.00
C3a      0.75722    0.58257    0.21645   1.00
H1       0.76414    0.59881    0.19019   1.00
C2       0.74710    0.60243    0.25072   1.00
C2       0.60243    0.24928    0.24710   1.00
C3a      0.58116    0.25898    0.21356   1.00
H1       0.59631    0.26624    0.18675   1.00
C3a      0.58296    0.23987    0.28180   1.00
H1       0.59949    0.23238    0.30771   1.00
C3b      0.54062    0.25937    0.21433   1.00
C5       0.51856    0.26993    0.17774   1.00
H2       0.50016    0.29602    0.18303   1.00
H2       0.53839    0.27655    0.15300   1.00
H2       0.49940    0.24539    0.16887   1.00
C3b      0.54244    0.24005    0.28332   1.00
C5       0.52233    0.22979    0.32110   1.00
H2       0.50330    0.20396    0.31687   1.00
H2       0.54345    0.22288    0.34468   1.00
H2       0.50406    0.25458    0.33103   1.00
C4       0.52127    0.24985    0.24940   1.00
C4       0.47873    0.25015    0.25060   1.00
C3b      0.45899    0.28480    0.26082   1.00
C5       0.48063    0.32185    0.27063   1.00
H2       0.49871    0.33112    0.24544   1.00
H2       0.46051    0.34616    0.27796   1.00
H2       0.50005    0.31695    0.29605   1.00
C3b      0.45796    0.21578    0.24153   1.00
C5       0.47848    0.17844    0.23053   1.00
H2       0.49783    0.16890    0.25466   1.00
H2       0.45765    0.15441    0.22435   1.00
H2       0.49650    0.18307    0.20405   1.00
C3a      0.41845    0.28471    0.26187   1.00
H1       0.40300    0.31119    0.26969   1.00
C3a      0.41743    0.21645    0.24278   1.00
H1       0.40119    0.19019    0.23586   1.00
C2       0.39757    0.25072    0.25290   1.00
C2       0.89757    0.24928    0.25290   1.00
C3a      0.91884    0.25898    0.28644   1.00
H1       0.90369    0.26624    0.31325   1.00
C3a      0.91704    0.23987    0.21820   1.00
H1       0.90051    0.23238    0.19229   1.00
C3b      0.95938    0.25937    0.28567   1.00
C5       0.98144    0.26993    0.32226   1.00
H2       0.99984    0.29602    0.31697   1.00
H2       0.96161    0.27655    0.34700   1.00
H2       1.00060    0.24539    0.33113   1.00
C3b      0.95756    0.24005    0.21668   1.00
C5       0.97767    0.22979    0.17890   1.00
H2       0.99670    0.20396    0.18313   1.00
H2       0.95655    0.22288    0.15532   1.00
H2       0.99594    0.25458    0.16897   1.00
C4       0.97873    0.24985    0.25060   1.00
C4       1.02127    0.25015    0.24940   1.00
C3b      1.04101    0.28480    0.23918   1.00
C5       1.01937    0.32185    0.22937   1.00
H2       1.00129    0.33112    0.25456   1.00
H2       1.03949    0.34616    0.22204   1.00
H2       0.99995    0.31695    0.20395   1.00
C3b      1.04204    0.21578    0.25847   1.00
C5       1.02152    0.17844    0.26947   1.00
H2       1.00217    0.16890    0.24534   1.00
H2       1.04235    0.15441    0.27565   1.00
H2       1.00350    0.18307    0.29595   1.00
C3a      1.08155    0.28471    0.23813   1.00
H1       1.09700    0.31119    0.23031   1.00
C3a      1.08257    0.21645    0.25722   1.00
H1       1.09881    0.19019    0.26414   1.00
C2       1.10243    0.25072    0.24710   1.00
C2       0.74710    0.10243    0.24928   1.00
C3a      0.71356    0.08116    0.25898   1.00
H1       0.68675    0.09631    0.26624   1.00
C3a      0.78180    0.08296    0.23987   1.00
H1       0.80771    0.09949    0.23238   1.00
C3b      0.71433    0.04062    0.25937   1.00
C5       0.67774    0.01856    0.26993   1.00
H2       0.68303    0.00016    0.29602   1.00
H2       0.65300    0.03839    0.27655   1.00
H2       0.66887    -0.00060   0.24539   1.00
C3b      0.78332    0.04244    0.24005   1.00
C5       0.82110    0.02233    0.22979   1.00
H2       0.81687    0.00330    0.20396   1.00
H2       0.84468    0.04345    0.22288   1.00
H2       0.83103    0.00406    0.25458   1.00
C4       0.74940    0.02127    0.24985   1.00
C4       0.75060    -0.02127   0.25015   1.00
C3b      0.76082    -0.04101   0.28480   1.00
C5       0.77063    -0.01937   0.32185   1.00
H2       0.74544    -0.00129   0.33112   1.00
H2       0.77796    -0.03949   0.34616   1.00
H2       0.79605    0.00005    0.31695   1.00
C3b      0.74153    -0.04204   0.21578   1.00
C5       0.73053    -0.02152   0.17844   1.00
H2       0.75466    -0.00217   0.16890   1.00
H2       0.72435    -0.04235   0.15441   1.00
H2       0.70405    -0.00350   0.18307   1.00
C3a      0.76187    -0.08155   0.28471   1.00
H1       0.76969    -0.09700   0.31119   1.00
C3a      0.74278    -0.08257   0.21645   1.00
H1       0.73586    -0.09881   0.19019   1.00
C2       0.75290    -0.10243   0.25072   1.00
C2       0.74928    0.24710    0.10243   1.00
C3a      0.75898    0.21356    0.08116   1.00
H1       0.76624    0.18675    0.09631   1.00
C3a      0.73987    0.28180    0.08296   1.00
H1       0.73238    0.30771    0.09949   1.00
C3b      0.75937    0.21433    0.04062   1.00
C5       0.76993    0.17774    0.01856   1.00
H2       0.79602    0.18303    0.00016   1.00
H2       0.77655    0.15300    0.03839   1.00
H2       0.74539    0.16887    -0.00060   1.00
C3b      0.74005    0.28332    0.04244   1.00
C5       0.72979    0.32110    0.02233   1.00
H2       0.70396    0.31687    0.00330   1.00
H2       0.72288    0.34468    0.04345   1.00
H2       0.75458    0.33103    0.00406   1.00
C4       0.74985    0.24940    0.02127   1.00
C4       0.75015    0.25060    -0.02127   1.00
C3b      0.78480    0.26082    -0.04101   1.00
C5       0.82185    0.27063    -0.01937   1.00
H2       0.83112    0.24544    -0.00129   1.00
H2       0.84616    0.27796    -0.03949   1.00
H2       0.81695    0.29605    0.00005   1.00
C3b      0.71578    0.24153    -0.04204   1.00
C5       0.67844    0.23053    -0.02152   1.00
H2       0.66890    0.25466    -0.00217   1.00
H2       0.65441    0.22435    -0.04235   1.00
H2       0.68307    0.20405    -0.00350   1.00
C3a      0.78471    0.26187    -0.08155   1.00
H1       0.81119    0.26969    -0.09700   1.00
C3a      0.71645    0.24278    -0.08257   1.00
H1       0.69019    0.23586    -0.09881   1.00
C2       0.75072    0.25290    -0.10243   1.00
C2       0.99928    1.00290    1.14757   1.00
C3a      1.00898    1.03644    1.16884   1.00
H1       1.01624    1.06325    1.15369   1.00
C3a      0.98987    0.96820    1.16704   1.00
H1       0.98238    0.94229    1.15051   1.00
C3b      1.00937    1.03567    1.20938   1.00
C5       1.01993    1.07226    1.23144   1.00
H2       1.04602    1.06697    1.24984   1.00
H2       1.02655    1.09700    1.21161   1.00
H2       0.99539    1.08113    1.25060   1.00
C3b      0.99005    0.96668    1.20756   1.00
C5       0.97979    0.92890    1.22767   1.00
H2       0.95396    0.93313    1.24670   1.00
H2       0.97288    0.90532    1.20655   1.00
H2       1.00458    0.91897    1.24594   1.00
C4       0.99985    1.00060    1.22873   1.00
C4       1.00015    0.99940    1.27127   1.00
C3b      1.03480    0.98918    1.29101   1.00
C5       1.07185    0.97937    1.26937   1.00
H2       1.08112    1.00456    1.25129   1.00
H2       1.09616    0.97204    1.28949   1.00
H2       1.06695    0.95395    1.24995   1.00
C3b      0.96578    1.00847    1.29204   1.00
C5       0.92844    1.01947    1.27152   1.00
H2       0.91890    0.99534    1.25217   1.00
H2       0.90441    1.02565    1.29235   1.00
H2       0.93307    1.04595    1.25350   1.00
C3a      1.03471    0.98813    1.33155   1.00
H1       1.06119    0.98031    1.34700   1.00
C3a      0.96645    1.00722    1.33257   1.00
H1       0.94019    1.01414    1.34881   1.00
C2       1.00072    0.99710    1.35243   1.00
C2       1.00290    1.14757    0.99928   1.00
C3a      1.03644    1.16884    1.00898   1.00
H1       1.06325    1.15369    1.01624   1.00
C3a      0.96820    1.16704    0.98987   1.00
H1       0.94229    1.15051    0.98238   1.00
C3b      1.03567    1.20938    1.00937   1.00
C5       1.07226    1.23144    1.01993   1.00
H2       1.06697    1.24984    1.04602   1.00
H2       1.09700    1.21161    1.02655   1.00
H2       1.08113    1.25060    0.99539   1.00
C3b      0.96668    1.20756    0.99005   1.00
C5       0.92890    1.22767    0.97979   1.00
H2       0.93313    1.24670    0.95396   1.00
H2       0.90532    1.20655    0.97288   1.00
H2       0.91897    1.24594    1.00458   1.00
C4       1.00060    1.22873    0.99985   1.00
C4       0.99940    1.27127    1.00015   1.00
C3b      0.98918    1.29101    1.03480   1.00
C5       0.97937    1.26937    1.07185   1.00
H2       1.00456    1.25129    1.08112   1.00
H2       0.97204    1.28949    1.09616   1.00
H2       0.95395    1.24995    1.06695   1.00
C3b      1.00847    1.29204    0.96578   1.00
C5       1.01947    1.27152    0.92844   1.00
H2       0.99534    1.25217    0.91890   1.00
H2       1.02565    1.29235    0.90441   1.00
H2       1.04595    1.25350    0.93307   1.00
C3a      0.98813    1.33155    1.03471   1.00
H1       0.98031    1.34700    1.06119   1.00
C3a      1.00722    1.33257    0.96645   1.00
H1       1.01414    1.34881    0.94019   1.00
C2       0.99710    1.35243    1.00072   1.00
C2       0.85243    0.99928    0.99710   1.00
C3a      0.83116    1.00898    0.96356   1.00
H1       0.84631    1.01624    0.93675   1.00
C3a      0.83296    0.98987    1.03180   1.00
H1       0.84949    0.98238    1.05771   1.00
C3b      0.79062    1.00937    0.96433   1.00
C5       0.76856    1.01993    0.92774   1.00
H2       0.75016    1.04602    0.93303   1.00
H2       0.78839    1.02655    0.90300   1.00
H2       0.74940    0.99539    0.91887   1.00
C3b      0.79244    0.99005    1.03332   1.00
C5       0.77233    0.97979    1.07110   1.00
H2       0.75330    0.95396    1.06687   1.00
H2       0.79345    0.97288    1.09468   1.00
H2       0.75406    1.00458    1.08103   1.00
C4       0.77127    0.99985    0.99940   1.00
C4       0.72873    1.00015    1.00060   1.00
C3b      0.70899    1.03480    1.01082   1.00
C5       0.73063    1.07185    1.02063   1.00
H2       0.74871    1.08112    0.99544   1.00
H2       0.71051    1.09616    1.02796   1.00
H2       0.75005    1.06695    1.04605   1.00
C3b      0.70796    0.96578    0.99153   1.00
C5       0.72848    0.92844    0.98053   1.00
H2       0.74783    0.91890    1.00466   1.00
H2       0.70765    0.90441    0.97435   1.00
H2       0.74650    0.93307    0.95405   1.00
C3a      0.66845    1.03471    1.01187   1.00
H1       0.65300    1.06119    1.01969   1.00
C3a      0.66743    0.96645    0.99278   1.00
H1       0.65119    0.94019    0.98586   1.00
C2       0.64757    1.00072    1.00290   1.00
C2       1.14757    0.99928    1.00290   1.00
C3a      1.16884    1.00898    1.03644   1.00
H1       1.15369    1.01624    1.06325   1.00
C3a      1.16704    0.98987    0.96820   1.00
H1       1.15051    0.98238    0.94229   1.00
C3b      1.20938    1.00937    1.03567   1.00
C5       1.23144    1.01993    1.07226   1.00
H2       1.24984    1.04602    1.06697   1.00
H2       1.21161    1.02655    1.09700   1.00
H2       1.25060    0.99539    1.08113   1.00
C3b      1.20756    0.99005    0.96668   1.00
C5       1.22767    0.97979    0.92890   1.00
H2       1.24670    0.95396    0.93313   1.00
H2       1.20655    0.97288    0.90532   1.00
H2       1.24594    1.00458    0.91897   1.00
C4       1.22873    0.99985    1.00060   1.00
C4       1.27127    1.00015    0.99940   1.00
C3b      1.29101    1.03480    0.98918   1.00
C5       1.26937    1.07185    0.97937   1.00
H2       1.25129    1.08112    1.00456   1.00
H2       1.28949    1.09616    0.97204   1.00
H2       1.24995    1.06695    0.95395   1.00
C3b      1.29204    0.96578    1.00847   1.00
C5       1.27152    0.92844    1.01947   1.00
H2       1.25217    0.91890    0.99534   1.00
H2       1.29235    0.90441    1.02565   1.00
H2       1.25350    0.93307    1.04595   1.00
C3a      1.33155    1.03471    0.98813   1.00
H1       1.34700    1.06119    0.98031   1.00
C3a      1.33257    0.96645    1.00722   1.00
H1       1.34881    0.94019    1.01414   1.00
C2       1.35243    1.00072    0.99710   1.00
C2       0.99710    0.85243    0.99928   1.00
C3a      0.96356    0.83116    1.00898   1.00
H1       0.93675    0.84631    1.01624   1.00
C3a      1.03180    0.83296    0.98987   1.00
H1       1.05771    0.84949    0.98238   1.00
C3b      0.96433    0.79062    1.00937   1.00
C5       0.92774    0.76856    1.01993   1.00
H2       0.93303    0.75016    1.04602   1.00
H2       0.90300    0.78839    1.02655   1.00
H2       0.91887    0.74940    0.99539   1.00
C3b      1.03332    0.79244    0.99005   1.00
C5       1.07110    0.77233    0.97979   1.00
H2       1.06687    0.75330    0.95396   1.00
H2       1.09468    0.79345    0.97288   1.00
H2       1.08103    0.75406    1.00458   1.00
C4       0.99940    0.77127    0.99985   1.00
C4       1.00060    0.72873    1.00015   1.00
C3b      1.01082    0.70899    1.03480   1.00
C5       1.02063    0.73063    1.07185   1.00
H2       0.99544    0.74871    1.08112   1.00
H2       1.02796    0.71051    1.09616   1.00
H2       1.04605    0.75005    1.06695   1.00
C3b      0.99153    0.70796    0.96578   1.00
C5       0.98053    0.72848    0.92844   1.00
H2       1.00466    0.74783    0.91890   1.00
H2       0.97435    0.70765    0.90441   1.00
H2       0.95405    0.74650    0.93307   1.00
C3a      1.01187    0.66845    1.03471   1.00
H1       1.01969    0.65300    1.06119   1.00
C3a      0.99278    0.66743    0.96645   1.00
H1       0.98586    0.65119    0.94019   1.00
C2       1.00290    0.64757    1.00072   1.00
C2       0.99928    0.99710    0.85243   1.00
C3a      1.00898    0.96356    0.83116   1.00
H1       1.01624    0.93675    0.84631   1.00
C3a      0.98987    1.03180    0.83296   1.00
H1       0.98238    1.05771    0.84949   1.00
C3b      1.00937    0.96433    0.79062   1.00
C5       1.01993    0.92774    0.76856   1.00
H2       1.04602    0.93303    0.75016   1.00
H2       1.02655    0.90300    0.78839   1.00
H2       0.99539    0.91887    0.74940   1.00
C3b      0.99005    1.03332    0.79244   1.00
C5       0.97979    1.07110    0.77233   1.00
H2       0.95396    1.06687    0.75330   1.00
H2       0.97288    1.09468    0.79345   1.00
H2       1.00458    1.08103    0.75406   1.00
C4       0.99985    0.99940    0.77127   1.00
C4       1.00015    1.00060    0.72873   1.00
C3b      1.03480    1.01082    0.70899   1.00
C5       1.07185    1.02063    0.73063   1.00
H2       1.08112    0.99544    0.74871   1.00
H2       1.09616    1.02796    0.71051   1.00
H2       1.06695    1.04605    0.75005   1.00
C3b      0.96578    0.99153    0.70796   1.00
C5       0.92844    0.98053    0.72848   1.00
H2       0.91890    1.00466    0.74783   1.00
H2       0.90441    0.97435    0.70765   1.00
H2       0.93307    0.95405    0.74650   1.00
C3a      1.03471    1.01187    0.66845   1.00
H1       1.06119    1.01969    0.65300   1.00
C3a      0.96645    0.99278    0.66743   1.00
H1       0.94019    0.98586    0.65119   1.00
C2       1.00072    1.00290    0.64757   1.00
C2       0.49928    0.50290    1.14757   1.00
C3a      0.50898    0.53644    1.16884   1.00
H1       0.51624    0.56325    1.15369   1.00
C3a      0.48987    0.46820    1.16704   1.00
H1       0.48238    0.44229    1.15051   1.00
C3b      0.50937    0.53567    1.20938   1.00
C5       0.51993    0.57226    1.23144   1.00
H2       0.54602    0.56697    1.24984   1.00
H2       0.52655    0.59700    1.21161   1.00
H2       0.49539    0.58113    1.25060   1.00
C3b      0.49005    0.46668    1.20756   1.00
C5       0.47979    0.42890    1.22767   1.00
H2       0.45396    0.43313    1.24670   1.00
H2       0.47288    0.40532    1.20655   1.00
H2       0.50458    0.41897    1.24594   1.00
C4       0.49985    0.50060    1.22873   1.00
C4       0.50015    0.49940    1.27127   1.00
C3b      0.53480    0.48918    1.29101   1.00
C5       0.57185    0.47937    1.26937   1.00
H2       0.58112    0.50456    1.25129   1.00
H2       0.59616    0.47204    1.28949   1.00
H2       0.56695    0.45395    1.24995   1.00
C3b      0.46578    0.50847    1.29204   1.00
C5       0.42844    0.51947    1.27152   1.00
H2       0.41890    0.49534    1.25217   1.00
H2       0.40441    0.52565    1.29235   1.00
H2       0.43307    0.54595    1.25350   1.00
C3a      0.53471    0.48813    1.33155   1.00
H1       0.56119    0.48031    1.34700   1.00
C3a      0.46645    0.50722    1.33257   1.00
H1       0.44019    0.51414    1.34881   1.00
C2       0.50072    0.49710    1.35243   1.00
C2       0.50290    0.64757    0.99928   1.00
C3a      0.53644    0.66884    1.00898   1.00
H1       0.56325    0.65369    1.01624   1.00
C3a      0.46820    0.66704    0.98987   1.00
H1       0.44229    0.65051    0.98238   1.00
C3b      0.53567    0.70938    1.00937   1.00
C5       0.57226    0.73144    1.01993   1.00
H2       0.56697    0.74984    1.04602   1.00
H2       0.59700    0.71161    1.02655   1.00
H2       0.58113    0.75060    0.99539   1.00
C3b      0.46668    0.70756    0.99005   1.00
C5       0.42890    0.72767    0.97979   1.00
H2       0.43313    0.74670    0.95396   1.00
H2       0.40532    0.70655    0.97288   1.00
H2       0.41897    0.74594    1.00458   1.00
C4       0.50060    0.72873    0.99985   1.00
C4       0.49940    0.77127    1.00015   1.00
C3b      0.48918    0.79101    1.03480   1.00
C5       0.47937    0.76937    1.07185   1.00
H2       0.50456    0.75129    1.08112   1.00
H2       0.47204    0.78949    1.09616   1.00
H2       0.45395    0.74995    1.06695   1.00
C3b      0.50847    0.79204    0.96578   1.00
C5       0.51947    0.77152    0.92844   1.00
H2       0.49534    0.75217    0.91890   1.00
H2       0.52565    0.79235    0.90441   1.00
H2       0.54595    0.75350    0.93307   1.00
C3a      0.48813    0.83155    1.03471   1.00
H1       0.48031    0.84700    1.06119   1.00
C3a      0.50722    0.83257    0.96645   1.00
H1       0.51414    0.84881    0.94019   1.00
C2       0.49710    0.85243    1.00072   1.00
C2       0.35243    0.49928    0.99710   1.00
C3a      0.33116    0.50898    0.96356   1.00
H1       0.34631    0.51624    0.93675   1.00
C3a      0.33296    0.48987    1.03180   1.00
H1       0.34949    0.48238    1.05771   1.00
C3b      0.29062    0.50937    0.96433   1.00
C5       0.26856    0.51993    0.92774   1.00
H2       0.25016    0.54602    0.93303   1.00
H2       0.28839    0.52655    0.90300   1.00
H2       0.24940    0.49539    0.91887   1.00
C3b      0.29244    0.49005    1.03332   1.00
C5       0.27233    0.47979    1.07110   1.00
H2       0.25330    0.45396    1.06687   1.00
H2       0.29345    0.47288    1.09468   1.00
H2       0.25406    0.50458    1.08103   1.00
C4       0.27127    0.49985    0.99940   1.00
C4       0.22873    0.50015    1.00060   1.00
C3b      0.20899    0.53480    1.01082   1.00
C5       0.23063    0.57185    1.02063   1.00
H2       0.24871    0.58112    0.99544   1.00
H2       0.21051    0.59616    1.02796   1.00
H2       0.25005    0.56695    1.04605   1.00
C3b      0.20796    0.46578    0.99153   1.00
C5       0.22848    0.42844    0.98053   1.00
H2       0.24783    0.41890    1.00466   1.00
H2       0.20765    0.40441    0.97435   1.00
H2       0.24650    0.43307    0.95405   1.00
C3a      0.16845    0.53471    1.01187   1.00
H1       0.15300    0.56119    1.01969   1.00
C3a      0.16743    0.46645    0.99278   1.00
H1       0.15119    0.44019    0.98586   1.00
C2       0.14757    0.50072    1.00290   1.00
C2       0.64757    0.49928    1.00290   1.00
C3a      0.66884    0.50898    1.03644   1.00
H1       0.65369    0.51624    1.06325   1.00
C3a      0.66704    0.48987    0.96820   1.00
H1       0.65051    0.48238    0.94229   1.00
C3b      0.70938    0.50937    1.03567   1.00
C5       0.73144    0.51993    1.07226   1.00
H2       0.74984    0.54602    1.06697   1.00
H2       0.71161    0.52655    1.09700   1.00
H2       0.75060    0.49539    1.08113   1.00
C3b      0.70756    0.49005    0.96668   1.00
C5       0.72767    0.47979    0.92890   1.00
H2       0.74670    0.45396    0.93313   1.00
H2       0.70655    0.47288    0.90532   1.00
H2       0.74594    0.50458    0.91897   1.00
C4       0.72873    0.49985    1.00060   1.00
C4       0.77127    0.50015    0.99940   1.00
C3b      0.79101    0.53480    0.98918   1.00
C5       0.76937    0.57185    0.97937   1.00
H2       0.75129    0.58112    1.00456   1.00
H2       0.78949    0.59616    0.97204   1.00
H2       0.74995    0.56695    0.95395   1.00
C3b      0.79204    0.46578    1.00847   1.00
C5       0.77152    0.42844    1.01947   1.00
H2       0.75217    0.41890    0.99534   1.00
H2       0.79235    0.40441    1.02565   1.00
H2       0.75350    0.43307    1.04595   1.00
C3a      0.83155    0.53471    0.98813   1.00
H1       0.84700    0.56119    0.98031   1.00
C3a      0.83257    0.46645    1.00722   1.00
H1       0.84881    0.44019    1.01414   1.00
C2       0.85243    0.50072    0.99710   1.00
C2       0.49710    0.35243    0.99928   1.00
C3a      0.46356    0.33116    1.00898   1.00
H1       0.43675    0.34631    1.01624   1.00
C3a      0.53180    0.33296    0.98987   1.00
H1       0.55771    0.34949    0.98238   1.00
C3b      0.46433    0.29062    1.00937   1.00
C5       0.42774    0.26856    1.01993   1.00
H2       0.43303    0.25016    1.04602   1.00
H2       0.40300    0.28839    1.02655   1.00
H2       0.41887    0.24940    0.99539   1.00
C3b      0.53332    0.29244    0.99005   1.00
C5       0.57110    0.27233    0.97979   1.00
H2       0.56687    0.25330    0.95396   1.00
H2       0.59468    0.29345    0.97288   1.00
H2       0.58103    0.25406    1.00458   1.00
C4       0.49940    0.27127    0.99985   1.00
C4       0.50060    0.22873    1.00015   1.00
C3b      0.51082    0.20899    1.03480   1.00
C5       0.52063    0.23063    1.07185   1.00
H2       0.49544    0.24871    1.08112   1.00
H2       0.52796    0.21051    1.09616   1.00
H2       0.54605    0.25005    1.06695   1.00
C3b      0.49153    0.20796    0.96578   1.00
C5       0.48053    0.22848    0.92844   1.00
H2       0.50466    0.24783    0.91890   1.00
H2       0.47435    0.20765    0.90441   1.00
H2       0.45405    0.24650    0.93307   1.00
C3a      0.51187    0.16845    1.03471   1.00
H1       0.51969    0.15300    1.06119   1.00
C3a      0.49278    0.16743    0.96645   1.00
H1       0.48586    0.15119    0.94019   1.00
C2       0.50290    0.14757    1.00072   1.00
C2       0.49928    0.49710    0.85243   1.00
C3a      0.50898    0.46356    0.83116   1.00
H1       0.51624    0.43675    0.84631   1.00
C3a      0.48987    0.53180    0.83296   1.00
H1       0.48238    0.55771    0.84949   1.00
C3b      0.50937    0.46433    0.79062   1.00
C5       0.51993    0.42774    0.76856   1.00
H2       0.54602    0.43303    0.75016   1.00
H2       0.52655    0.40300    0.78839   1.00
H2       0.49539    0.41887    0.74940   1.00
C3b      0.49005    0.53332    0.79244   1.00
C5       0.47979    0.57110    0.77233   1.00
H2       0.45396    0.56687    0.75330   1.00
H2       0.47288    0.59468    0.79345   1.00
H2       0.50458    0.58103    0.75406   1.00
C4       0.49985    0.49940    0.77127   1.00
C4       0.50015    0.50060    0.72873   1.00
C3b      0.53480    0.51082    0.70899   1.00
C5       0.57185    0.52063    0.73063   1.00
H2       0.58112    0.49544    0.74871   1.00
H2       0.59616    0.52796    0.71051   1.00
H2       0.56695    0.54605    0.75005   1.00
C3b      0.46578    0.49153    0.70796   1.00
C5       0.42844    0.48053    0.72848   1.00
H2       0.41890    0.50466    0.74783   1.00
H2       0.40441    0.47435    0.70765   1.00
H2       0.43307    0.45405    0.74650   1.00
C3a      0.53471    0.51187    0.66845   1.00
H1       0.56119    0.51969    0.65300   1.00
C3a      0.46645    0.49278    0.66743   1.00
H1       0.44019    0.48586    0.65119   1.00
C2       0.50072    0.50290    0.64757   1.00
C2       0.49928    1.00290    0.64757   1.00
C3a      0.50898    1.03644    0.66884   1.00
H1       0.51624    1.06325    0.65369   1.00
C3a      0.48987    0.96820    0.66704   1.00
H1       0.48238    0.94229    0.65051   1.00
C3b      0.50937    1.03567    0.70938   1.00
C5       0.51993    1.07226    0.73144   1.00
H2       0.54602    1.06697    0.74984   1.00
H2       0.52655    1.09700    0.71161   1.00
H2       0.49539    1.08113    0.75060   1.00
C3b      0.49005    0.96668    0.70756   1.00
C5       0.47979    0.92890    0.72767   1.00
H2       0.45396    0.93313    0.74670   1.00
H2       0.47288    0.90532    0.70655   1.00
H2       0.50458    0.91897    0.74594   1.00
C4       0.49985    1.00060    0.72873   1.00
C4       0.50015    0.99940    0.77127   1.00
C3b      0.53480    0.98918    0.79101   1.00
C5       0.57185    0.97937    0.76937   1.00
H2       0.58112    1.00456    0.75129   1.00
H2       0.59616    0.97204    0.78949   1.00
H2       0.56695    0.95395    0.74995   1.00
C3b      0.46578    1.00847    0.79204   1.00
C5       0.42844    1.01947    0.77152   1.00
H2       0.41890    0.99534    0.75217   1.00
H2       0.40441    1.02565    0.79235   1.00
H2       0.43307    1.04595    0.75350   1.00
C3a      0.53471    0.98813    0.83155   1.00
H1       0.56119    0.98031    0.84700   1.00
C3a      0.46645    1.00722    0.83257   1.00
H1       0.44019    1.01414    0.84881   1.00
C2       0.50072    0.99710    0.85243   1.00
C2       0.50290    1.14757    0.49928   1.00
C3a      0.53644    1.16884    0.50898   1.00
H1       0.56325    1.15369    0.51624   1.00
C3a      0.46820    1.16704    0.48987   1.00
H1       0.44229    1.15051    0.48238   1.00
C3b      0.53567    1.20938    0.50937   1.00
C5       0.57226    1.23144    0.51993   1.00
H2       0.56697    1.24984    0.54602   1.00
H2       0.59700    1.21161    0.52655   1.00
H2       0.58113    1.25060    0.49539   1.00
C3b      0.46668    1.20756    0.49005   1.00
C5       0.42890    1.22767    0.47979   1.00
H2       0.43313    1.24670    0.45396   1.00
H2       0.40532    1.20655    0.47288   1.00
H2       0.41897    1.24594    0.50458   1.00
C4       0.50060    1.22873    0.49985   1.00
C4       0.49940    1.27127    0.50015   1.00
C3b      0.48918    1.29101    0.53480   1.00
C5       0.47937    1.26937    0.57185   1.00
H2       0.50456    1.25129    0.58112   1.00
H2       0.47204    1.28949    0.59616   1.00
H2       0.45395    1.24995    0.56695   1.00
C3b      0.50847    1.29204    0.46578   1.00
C5       0.51947    1.27152    0.42844   1.00
H2       0.49534    1.25217    0.41890   1.00
H2       0.52565    1.29235    0.40441   1.00
H2       0.54595    1.25350    0.43307   1.00
C3a      0.48813    1.33155    0.53471   1.00
H1       0.48031    1.34700    0.56119   1.00
C3a      0.50722    1.33257    0.46645   1.00
H1       0.51414    1.34881    0.44019   1.00
C2       0.49710    1.35243    0.50072   1.00
C2       0.35243    0.99928    0.49710   1.00
C3a      0.33116    1.00898    0.46356   1.00
H1       0.34631    1.01624    0.43675   1.00
C3a      0.33296    0.98987    0.53180   1.00
H1       0.34949    0.98238    0.55771   1.00
C3b      0.29062    1.00937    0.46433   1.00
C5       0.26856    1.01993    0.42774   1.00
H2       0.25016    1.04602    0.43303   1.00
H2       0.28839    1.02655    0.40300   1.00
H2       0.24940    0.99539    0.41887   1.00
C3b      0.29244    0.99005    0.53332   1.00
C5       0.27233    0.97979    0.57110   1.00
H2       0.25330    0.95396    0.56687   1.00
H2       0.29345    0.97288    0.59468   1.00
H2       0.25406    1.00458    0.58103   1.00
C4       0.27127    0.99985    0.49940   1.00
C4       0.22873    1.00015    0.50060   1.00
C3b      0.20899    1.03480    0.51082   1.00
C5       0.23063    1.07185    0.52063   1.00
H2       0.24871    1.08112    0.49544   1.00
H2       0.21051    1.09616    0.52796   1.00
H2       0.25005    1.06695    0.54605   1.00
C3b      0.20796    0.96578    0.49153   1.00
C5       0.22848    0.92844    0.48053   1.00
H2       0.24783    0.91890    0.50466   1.00
H2       0.20765    0.90441    0.47435   1.00
H2       0.24650    0.93307    0.45405   1.00
C3a      0.16845    1.03471    0.51187   1.00
H1       0.15300    1.06119    0.51969   1.00
C3a      0.16743    0.96645    0.49278   1.00
H1       0.15119    0.94019    0.48586   1.00
C2       0.14757    1.00072    0.50290   1.00
C2       0.64757    0.99928    0.50290   1.00
C3a      0.66884    1.00898    0.53644   1.00
H1       0.65369    1.01624    0.56325   1.00
C3a      0.66704    0.98987    0.46820   1.00
H1       0.65051    0.98238    0.44229   1.00
C3b      0.70938    1.00937    0.53567   1.00
C5       0.73144    1.01993    0.57226   1.00
H2       0.74984    1.04602    0.56697   1.00
H2       0.71161    1.02655    0.59700   1.00
H2       0.75060    0.99539    0.58113   1.00
C3b      0.70756    0.99005    0.46668   1.00
C5       0.72767    0.97979    0.42890   1.00
H2       0.74670    0.95396    0.43313   1.00
H2       0.70655    0.97288    0.40532   1.00
H2       0.74594    1.00458    0.41897   1.00
C4       0.72873    0.99985    0.50060   1.00
C4       0.77127    1.00015    0.49940   1.00
C3b      0.79101    1.03480    0.48918   1.00
C5       0.76937    1.07185    0.47937   1.00
H2       0.75129    1.08112    0.50456   1.00
H2       0.78949    1.09616    0.47204   1.00
H2       0.74995    1.06695    0.45395   1.00
C3b      0.79204    0.96578    0.50847   1.00
C5       0.77152    0.92844    0.51947   1.00
H2       0.75217    0.91890    0.49534   1.00
H2       0.79235    0.90441    0.52565   1.00
H2       0.75350    0.93307    0.54595   1.00
C3a      0.83155    1.03471    0.48813   1.00
H1       0.84700    1.06119    0.48031   1.00
C3a      0.83257    0.96645    0.50722   1.00
H1       0.84881    0.94019    0.51414   1.00
C2       0.85243    1.00072    0.49710   1.00
C2       0.49710    0.85243    0.49928   1.00
C3a      0.46356    0.83116    0.50898   1.00
H1       0.43675    0.84631    0.51624   1.00
C3a      0.53180    0.83296    0.48987   1.00
H1       0.55771    0.84949    0.48238   1.00
C3b      0.46433    0.79062    0.50937   1.00
C5       0.42774    0.76856    0.51993   1.00
H2       0.43303    0.75016    0.54602   1.00
H2       0.40300    0.78839    0.52655   1.00
H2       0.41887    0.74940    0.49539   1.00
C3b      0.53332    0.79244    0.49005   1.00
C5       0.57110    0.77233    0.47979   1.00
H2       0.56687    0.75330    0.45396   1.00
H2       0.59468    0.79345    0.47288   1.00
H2       0.58103    0.75406    0.50458   1.00
C4       0.49940    0.77127    0.49985   1.00
C4       0.50060    0.72873    0.50015   1.00
C3b      0.51082    0.70899    0.53480   1.00
C5       0.52063    0.73063    0.57185   1.00
H2       0.49544    0.74871    0.58112   1.00
H2       0.52796    0.71051    0.59616   1.00
H2       0.54605    0.75005    0.56695   1.00
C3b      0.49153    0.70796    0.46578   1.00
C5       0.48053    0.72848    0.42844   1.00
H2       0.50466    0.74783    0.41890   1.00
H2       0.47435    0.70765    0.40441   1.00
H2       0.45405    0.74650    0.43307   1.00
C3a      0.51187    0.66845    0.53471   1.00
H1       0.51969    0.65300    0.56119   1.00
C3a      0.49278    0.66743    0.46645   1.00
H1       0.48586    0.65119    0.44019   1.00
C2       0.50290    0.64757    0.50072   1.00
C2       0.49928    0.99710    0.35243   1.00
C3a      0.50898    0.96356    0.33116   1.00
H1       0.51624    0.93675    0.34631   1.00
C3a      0.48987    1.03180    0.33296   1.00
H1       0.48238    1.05771    0.34949   1.00
C3b      0.50937    0.96433    0.29062   1.00
C5       0.51993    0.92774    0.26856   1.00
H2       0.54602    0.93303    0.25016   1.00
H2       0.52655    0.90300    0.28839   1.00
H2       0.49539    0.91887    0.24940   1.00
C3b      0.49005    1.03332    0.29244   1.00
C5       0.47979    1.07110    0.27233   1.00
H2       0.45396    1.06687    0.25330   1.00
H2       0.47288    1.09468    0.29345   1.00
H2       0.50458    1.08103    0.25406   1.00
C4       0.49985    0.99940    0.27127   1.00
C4       0.50015    1.00060    0.22873   1.00
C3b      0.53480    1.01082    0.20899   1.00
C5       0.57185    1.02063    0.23063   1.00
H2       0.58112    0.99544    0.24871   1.00
H2       0.59616    1.02796    0.21051   1.00
H2       0.56695    1.04605    0.25005   1.00
C3b      0.46578    0.99153    0.20796   1.00
C5       0.42844    0.98053    0.22848   1.00
H2       0.41890    1.00466    0.24783   1.00
H2       0.40441    0.97435    0.20765   1.00
H2       0.43307    0.95405    0.24650   1.00
C3a      0.53471    1.01187    0.16845   1.00
H1       0.56119    1.01969    0.15300   1.00
C3a      0.46645    0.99278    0.16743   1.00
H1       0.44019    0.98586    0.15119   1.00
C2       0.50072    1.00290    0.14757   1.00
C2       0.99928    0.50290    0.64757   1.00
C3a      1.00898    0.53644    0.66884   1.00
H1       1.01624    0.56325    0.65369   1.00
C3a      0.98987    0.46820    0.66704   1.00
H1       0.98238    0.44229    0.65051   1.00
C3b      1.00937    0.53567    0.70938   1.00
C5       1.01993    0.57226    0.73144   1.00
H2       1.04602    0.56697    0.74984   1.00
H2       1.02655    0.59700    0.71161   1.00
H2       0.99539    0.58113    0.75060   1.00
C3b      0.99005    0.46668    0.70756   1.00
C5       0.97979    0.42890    0.72767   1.00
H2       0.95396    0.43313    0.74670   1.00
H2       0.97288    0.40532    0.70655   1.00
H2       1.00458    0.41897    0.74594   1.00
C4       0.99985    0.50060    0.72873   1.00
C4       1.00015    0.49940    0.77127   1.00
C3b      1.03480    0.48918    0.79101   1.00
C5       1.07185    0.47937    0.76937   1.00
H2       1.08112    0.50456    0.75129   1.00
H2       1.09616    0.47204    0.78949   1.00
H2       1.06695    0.45395    0.74995   1.00
C3b      0.96578    0.50847    0.79204   1.00
C5       0.92844    0.51947    0.77152   1.00
H2       0.91890    0.49534    0.75217   1.00
H2       0.90441    0.52565    0.79235   1.00
H2       0.93307    0.54595    0.75350   1.00
C3a      1.03471    0.48813    0.83155   1.00
H1       1.06119    0.48031    0.84700   1.00
C3a      0.96645    0.50722    0.83257   1.00
H1       0.94019    0.51414    0.84881   1.00
C2       1.00072    0.49710    0.85243   1.00
C2       1.00290    0.64757    0.49928   1.00
C3a      1.03644    0.66884    0.50898   1.00
H1       1.06325    0.65369    0.51624   1.00
C3a      0.96820    0.66704    0.48987   1.00
H1       0.94229    0.65051    0.48238   1.00
C3b      1.03567    0.70938    0.50937   1.00
C5       1.07226    0.73144    0.51993   1.00
H2       1.06697    0.74984    0.54602   1.00
H2       1.09700    0.71161    0.52655   1.00
H2       1.08113    0.75060    0.49539   1.00
C3b      0.96668    0.70756    0.49005   1.00
C5       0.92890    0.72767    0.47979   1.00
H2       0.93313    0.74670    0.45396   1.00
H2       0.90532    0.70655    0.47288   1.00
H2       0.91897    0.74594    0.50458   1.00
C4       1.00060    0.72873    0.49985   1.00
C4       0.99940    0.77127    0.50015   1.00
C3b      0.98918    0.79101    0.53480   1.00
C5       0.97937    0.76937    0.57185   1.00
H2       1.00456    0.75129    0.58112   1.00
H2       0.97204    0.78949    0.59616   1.00
H2       0.95395    0.74995    0.56695   1.00
C3b      1.00847    0.79204    0.46578   1.00
C5       1.01947    0.77152    0.42844   1.00
H2       0.99534    0.75217    0.41890   1.00
H2       1.02565    0.79235    0.40441   1.00
H2       1.04595    0.75350    0.43307   1.00
C3a      0.98813    0.83155    0.53471   1.00
H1       0.98031    0.84700    0.56119   1.00
C3a      1.00722    0.83257    0.46645   1.00
H1       1.01414    0.84881    0.44019   1.00
C2       0.99710    0.85243    0.50072   1.00
C2       0.85243    0.49928    0.49710   1.00
C3a      0.83116    0.50898    0.46356   1.00
H1       0.84631    0.51624    0.43675   1.00
C3a      0.83296    0.48987    0.53180   1.00
H1       0.84949    0.48238    0.55771   1.00
C3b      0.79062    0.50937    0.46433   1.00
C5       0.76856    0.51993    0.42774   1.00
H2       0.75016    0.54602    0.43303   1.00
H2       0.78839    0.52655    0.40300   1.00
H2       0.74940    0.49539    0.41887   1.00
C3b      0.79244    0.49005    0.53332   1.00
C5       0.77233    0.47979    0.57110   1.00
H2       0.75330    0.45396    0.56687   1.00
H2       0.79345    0.47288    0.59468   1.00
H2       0.75406    0.50458    0.58103   1.00
C4       0.77127    0.49985    0.49940   1.00
C4       0.72873    0.50015    0.50060   1.00
C3b      0.70899    0.53480    0.51082   1.00
C5       0.73063    0.57185    0.52063   1.00
H2       0.74871    0.58112    0.49544   1.00
H2       0.71051    0.59616    0.52796   1.00
H2       0.75005    0.56695    0.54605   1.00
C3b      0.70796    0.46578    0.49153   1.00
C5       0.72848    0.42844    0.48053   1.00
H2       0.74783    0.41890    0.50466   1.00
H2       0.70765    0.40441    0.47435   1.00
H2       0.74650    0.43307    0.45405   1.00
C3a      0.66845    0.53471    0.51187   1.00
H1       0.65300    0.56119    0.51969   1.00
C3a      0.66743    0.46645    0.49278   1.00
H1       0.65119    0.44019    0.48586   1.00
C2       0.64757    0.50072    0.50290   1.00
C2       1.14757    0.49928    0.50290   1.00
C3a      1.16884    0.50898    0.53644   1.00
H1       1.15369    0.51624    0.56325   1.00
C3a      1.16704    0.48987    0.46820   1.00
H1       1.15051    0.48238    0.44229   1.00
C3b      1.20938    0.50937    0.53567   1.00
C5       1.23144    0.51993    0.57226   1.00
H2       1.24984    0.54602    0.56697   1.00
H2       1.21161    0.52655    0.59700   1.00
H2       1.25060    0.49539    0.58113   1.00
C3b      1.20756    0.49005    0.46668   1.00
C5       1.22767    0.47979    0.42890   1.00
H2       1.24670    0.45396    0.43313   1.00
H2       1.20655    0.47288    0.40532   1.00
H2       1.24594    0.50458    0.41897   1.00
C4       1.22873    0.49985    0.50060   1.00
C4       1.27127    0.50015    0.49940   1.00
C3b      1.29101    0.53480    0.48918   1.00
C5       1.26937    0.57185    0.47937   1.00
H2       1.25129    0.58112    0.50456   1.00
H2       1.28949    0.59616    0.47204   1.00
H2       1.24995    0.56695    0.45395   1.00
C3b      1.29204    0.46578    0.50847   1.00
C5       1.27152    0.42844    0.51947   1.00
H2       1.25217    0.41890    0.49534   1.00
H2       1.29235    0.40441    0.52565   1.00
H2       1.25350    0.43307    0.54595   1.00
C3a      1.33155    0.53471    0.48813   1.00
H1       1.34700    0.56119    0.48031   1.00
C3a      1.33257    0.46645    0.50722   1.00
H1       1.34881    0.44019    0.51414   1.00
C2       1.35243    0.50072    0.49710   1.00
C2       0.99710    0.35243    0.49928   1.00
C3a      0.96356    0.33116    0.50898   1.00
H1       0.93675    0.34631    0.51624   1.00
C3a      1.03180    0.33296    0.48987   1.00
H1       1.05771    0.34949    0.48238   1.00
C3b      0.96433    0.29062    0.50937   1.00
C5       0.92774    0.26856    0.51993   1.00
H2       0.93303    0.25016    0.54602   1.00
H2       0.90300    0.28839    0.52655   1.00
H2       0.91887    0.24940    0.49539   1.00
C3b      1.03332    0.29244    0.49005   1.00
C5       1.07110    0.27233    0.47979   1.00
H2       1.06687    0.25330    0.45396   1.00
H2       1.09468    0.29345    0.47288   1.00
H2       1.08103    0.25406    0.50458   1.00
C4       0.99940    0.27127    0.49985   1.00
C4       1.00060    0.22873    0.50015   1.00
C3b      1.01082    0.20899    0.53480   1.00
C5       1.02063    0.23063    0.57185   1.00
H2       0.99544    0.24871    0.58112   1.00
H2       1.02796    0.21051    0.59616   1.00
H2       1.04605    0.25005    0.56695   1.00
C3b      0.99153    0.20796    0.46578   1.00
C5       0.98053    0.22848    0.42844   1.00
H2       1.00466    0.24783    0.41890   1.00
H2       0.97435    0.20765    0.40441   1.00
H2       0.95405    0.24650    0.43307   1.00
C3a      1.01187    0.16845    0.53471   1.00
H1       1.01969    0.15300    0.56119   1.00
C3a      0.99278    0.16743    0.46645   1.00
H1       0.98586    0.15119    0.44019   1.00
C2       1.00290    0.14757    0.50072   1.00
C2       0.99928    0.49710    0.35243   1.00
C3a      1.00898    0.46356    0.33116   1.00
H1       1.01624    0.43675    0.34631   1.00
C3a      0.98987    0.53180    0.33296   1.00
H1       0.98238    0.55771    0.34949   1.00
C3b      1.00937    0.46433    0.29062   1.00
C5       1.01993    0.42774    0.26856   1.00
H2       1.04602    0.43303    0.25016   1.00
H2       1.02655    0.40300    0.28839   1.00
H2       0.99539    0.41887    0.24940   1.00
C3b      0.99005    0.53332    0.29244   1.00
C5       0.97979    0.57110    0.27233   1.00
H2       0.95396    0.56687    0.25330   1.00
H2       0.97288    0.59468    0.29345   1.00
H2       1.00458    0.58103    0.25406   1.00
C4       0.99985    0.49940    0.27127   1.00
C4       1.00015    0.50060    0.22873   1.00
C3b      1.03480    0.51082    0.20899   1.00
C5       1.07185    0.52063    0.23063   1.00
H2       1.08112    0.49544    0.24871   1.00
H2       1.09616    0.52796    0.21051   1.00
H2       1.06695    0.54605    0.25005   1.00
C3b      0.96578    0.49153    0.20796   1.00
C5       0.92844    0.48053    0.22848   1.00
H2       0.91890    0.50466    0.24783   1.00
H2       0.90441    0.47435    0.20765   1.00
H2       0.93307    0.45405    0.24650   1.00
C3a      1.03471    0.51187    0.16845   1.00
H1       1.06119    0.51969    0.15300   1.00
C3a      0.96645    0.49278    0.16743   1.00
H1       0.94019    0.48586    0.15119   1.00
C2       1.00072    0.50290    0.14757   1.00
