data_IRMOF10_SG202_interpen_Ligand8lp_label_x.

_audit_creation_method             'generated by an auxiliary program of Tobunporous'

_symmetry_space_group_name_H-M     'P 1'
_symmetry_Int_Tables_number        1
_symmetry_cell_setting             triclinic

_cell_length_a                    34.2800
_cell_length_b                    34.2800
_cell_length_c                    34.2800
_cell_angle_alpha                 90.0000
_cell_angle_beta                  90.0000
_cell_angle_gamma                 90.0000

loop_
_atom_site_label
_atom_site_fract_x
_atom_site_fract_y
_atom_site_fract_z
_atom_site_occupancy
O1       0.75000    0.75000    0.75000   1.00
Zn1      0.71720    0.78280    0.78280   1.00
Zn1      0.78280    0.71720    0.78280   1.00
Zn1      0.78280    0.78280    0.71720   1.00
Zn1      0.71720    0.71720    0.71720   1.00
O2       0.72650    0.77350    0.83820   1.00
O2       0.72650    0.83820    0.77350   1.00
O2       0.66180    0.77350    0.77350   1.00
O2       0.77350    0.72650    0.83820   1.00
O2       0.83820    0.72650    0.77350   1.00
O2       0.77350    0.66180    0.77350   1.00
O2       0.77350    0.83820    0.72650   1.00
O2       0.83820    0.77350    0.72650   1.00
O2       0.77350    0.77350    0.66180   1.00
O2       0.66180    0.72650    0.72650   1.00
O2       0.72650    0.66180    0.72650   1.00
O2       0.72650    0.72650    0.66180   1.00
C1       0.75000    0.75000    0.85520   1.00
C1       0.75000    0.85520    0.75000   1.00
C1       0.64480    0.75000    0.75000   1.00
C1       0.85520    0.75000    0.75000   1.00
C1       0.75000    0.64480    0.75000   1.00
C1       0.75000    0.75000    0.64480   1.00
O1       0.25000    0.25000    0.75000   1.00
Zn1      0.21720    0.28280    0.78280   1.00
Zn1      0.28280    0.21720    0.78280   1.00
Zn1      0.28280    0.28280    0.71720   1.00
Zn1      0.21720    0.21720    0.71720   1.00
O2       0.22650    0.27350    0.83820   1.00
O2       0.22650    0.33820    0.77350   1.00
O2       0.16180    0.27350    0.77350   1.00
O2       0.27350    0.22650    0.83820   1.00
O2       0.33820    0.22650    0.77350   1.00
O2       0.27350    0.16180    0.77350   1.00
O2       0.27350    0.33820    0.72650   1.00
O2       0.33820    0.27350    0.72650   1.00
O2       0.27350    0.27350    0.66180   1.00
O2       0.16180    0.22650    0.72650   1.00
O2       0.22650    0.16180    0.72650   1.00
O2       0.22650    0.22650    0.66180   1.00
C1       0.25000    0.25000    0.85520   1.00
C1       0.25000    0.35520    0.75000   1.00
C1       0.14480    0.25000    0.75000   1.00
C1       0.35520    0.25000    0.75000   1.00
C1       0.25000    0.14480    0.75000   1.00
C1       0.25000    0.25000    0.64480   1.00
O1       0.25000    0.75000    0.25000   1.00
Zn1      0.21720    0.78280    0.28280   1.00
Zn1      0.28280    0.71720    0.28280   1.00
Zn1      0.28280    0.78280    0.21720   1.00
Zn1      0.21720    0.71720    0.21720   1.00
O2       0.22650    0.77350    0.33820   1.00
O2       0.22650    0.83820    0.27350   1.00
O2       0.16180    0.77350    0.27350   1.00
O2       0.27350    0.72650    0.33820   1.00
O2       0.33820    0.72650    0.27350   1.00
O2       0.27350    0.66180    0.27350   1.00
O2       0.27350    0.83820    0.22650   1.00
O2       0.33820    0.77350    0.22650   1.00
O2       0.27350    0.77350    0.16180   1.00
O2       0.16180    0.72650    0.22650   1.00
O2       0.22650    0.66180    0.22650   1.00
O2       0.22650    0.72650    0.16180   1.00
C1       0.25000    0.75000    0.35520   1.00
C1       0.25000    0.85520    0.25000   1.00
C1       0.14480    0.75000    0.25000   1.00
C1       0.35520    0.75000    0.25000   1.00
C1       0.25000    0.64480    0.25000   1.00
C1       0.25000    0.75000    0.14480   1.00
O1       0.75000    0.25000    0.25000   1.00
Zn1      0.71720    0.28280    0.28280   1.00
Zn1      0.78280    0.21720    0.28280   1.00
Zn1      0.78280    0.28280    0.21720   1.00
Zn1      0.71720    0.21720    0.21720   1.00
O2       0.72650    0.27350    0.33820   1.00
O2       0.72650    0.33820    0.27350   1.00
O2       0.66180    0.27350    0.27350   1.00
O2       0.77350    0.22650    0.33820   1.00
O2       0.83820    0.22650    0.27350   1.00
O2       0.77350    0.16180    0.27350   1.00
O2       0.77350    0.33820    0.22650   1.00
O2       0.83820    0.27350    0.22650   1.00
O2       0.77350    0.27350    0.16180   1.00
O2       0.66180    0.22650    0.22650   1.00
O2       0.72650    0.16180    0.22650   1.00
O2       0.72650    0.22650    0.16180   1.00
C1       0.75000    0.25000    0.35520   1.00
C1       0.75000    0.35520    0.25000   1.00
C1       0.64480    0.25000    0.25000   1.00
C1       0.85520    0.25000    0.25000   1.00
C1       0.75000    0.14480    0.25000   1.00
C1       0.75000    0.25000    0.14480   1.00
O1       0.25000    0.25000    0.25000   1.00
Zn1      0.28280    0.21720    0.21720   1.00
Zn1      0.21720    0.28280    0.21720   1.00
Zn1      0.21720    0.21720    0.28280   1.00
Zn1      0.28280    0.28280    0.28280   1.00
O2       0.27350    0.22650    0.16180   1.00
O2       0.27350    0.16180    0.22650   1.00
O2       0.33820    0.22650    0.22650   1.00
O2       0.22650    0.27350    0.16180   1.00
O2       0.16180    0.27350    0.22650   1.00
O2       0.22650    0.33820    0.22650   1.00
O2       0.22650    0.16180    0.27350   1.00
O2       0.16180    0.22650    0.27350   1.00
O2       0.22650    0.22650    0.33820   1.00
O2       0.33820    0.27350    0.27350   1.00
O2       0.27350    0.33820    0.27350   1.00
O2       0.27350    0.27350    0.33820   1.00
C1       0.25000    0.25000    0.14480   1.00
C1       0.25000    0.14480    0.25000   1.00
C1       0.35520    0.25000    0.25000   1.00
C1       0.14480    0.25000    0.25000   1.00
C1       0.25000    0.35520    0.25000   1.00
C1       0.25000    0.25000    0.35520   1.00
O1       0.75000    0.75000    0.25000   1.00
Zn1      0.78280    0.71720    0.21720   1.00
Zn1      0.71720    0.78280    0.21720   1.00
Zn1      0.71720    0.71720    0.28280   1.00
Zn1      0.78280    0.78280    0.28280   1.00
O2       0.77350    0.72650    0.16180   1.00
O2       0.77350    0.66180    0.22650   1.00
O2       0.83820    0.72650    0.22650   1.00
O2       0.72650    0.77350    0.16180   1.00
O2       0.66180    0.77350    0.22650   1.00
O2       0.72650    0.83820    0.22650   1.00
O2       0.72650    0.66180    0.27350   1.00
O2       0.66180    0.72650    0.27350   1.00
O2       0.72650    0.72650    0.33820   1.00
O2       0.83820    0.77350    0.27350   1.00
O2       0.77350    0.83820    0.27350   1.00
O2       0.77350    0.77350    0.33820   1.00
C1       0.75000    0.75000    0.14480   1.00
C1       0.75000    0.64480    0.25000   1.00
C1       0.85520    0.75000    0.25000   1.00
C1       0.64480    0.75000    0.25000   1.00
C1       0.75000    0.85520    0.25000   1.00
C1       0.75000    0.75000    0.35520   1.00
O1       0.75000    0.25000    0.75000   1.00
Zn1      0.78280    0.21720    0.71720   1.00
Zn1      0.71720    0.28280    0.71720   1.00
Zn1      0.71720    0.21720    0.78280   1.00
Zn1      0.78280    0.28280    0.78280   1.00
O2       0.77350    0.22650    0.66180   1.00
O2       0.77350    0.16180    0.72650   1.00
O2       0.83820    0.22650    0.72650   1.00
O2       0.72650    0.27350    0.66180   1.00
O2       0.66180    0.27350    0.72650   1.00
O2       0.72650    0.33820    0.72650   1.00
O2       0.72650    0.16180    0.77350   1.00
O2       0.66180    0.22650    0.77350   1.00
O2       0.72650    0.22650    0.83820   1.00
O2       0.83820    0.27350    0.77350   1.00
O2       0.77350    0.33820    0.77350   1.00
O2       0.77350    0.27350    0.83820   1.00
C1       0.75000    0.25000    0.64480   1.00
C1       0.75000    0.14480    0.75000   1.00
C1       0.85520    0.25000    0.75000   1.00
C1       0.64480    0.25000    0.75000   1.00
C1       0.75000    0.35520    0.75000   1.00
C1       0.75000    0.25000    0.85520   1.00
O1       0.25000    0.75000    0.75000   1.00
Zn1      0.28280    0.71720    0.71720   1.00
Zn1      0.21720    0.78280    0.71720   1.00
Zn1      0.21720    0.71720    0.78280   1.00
Zn1      0.28280    0.78280    0.78280   1.00
O2       0.27350    0.72650    0.66180   1.00
O2       0.27350    0.66180    0.72650   1.00
O2       0.33820    0.72650    0.72650   1.00
O2       0.22650    0.77350    0.66180   1.00
O2       0.16180    0.77350    0.72650   1.00
O2       0.22650    0.83820    0.72650   1.00
O2       0.22650    0.66180    0.77350   1.00
O2       0.16180    0.72650    0.77350   1.00
O2       0.22650    0.72650    0.83820   1.00
O2       0.33820    0.77350    0.77350   1.00
O2       0.27350    0.83820    0.77350   1.00
O2       0.27350    0.77350    0.83820   1.00
C1       0.25000    0.75000    0.64480   1.00
C1       0.25000    0.64480    0.75000   1.00
C1       0.35520    0.75000    0.75000   1.00
C1       0.14480    0.75000    0.75000   1.00
C1       0.25000    0.85520    0.75000   1.00
C1       0.25000    0.75000    0.85520   1.00
O1       1.00000    1.00000    1.00000   1.00
Zn1      0.96720    1.03280    1.03280   1.00
Zn1      1.03280    0.96720    1.03280   1.00
Zn1      1.03280    1.03280    0.96720   1.00
Zn1      0.96720    0.96720    0.96720   1.00
O2       0.97650    1.02350    1.08820   1.00
O2       0.97650    1.08820    1.02350   1.00
O2       0.91180    1.02350    1.02350   1.00
O2       1.02350    0.97650    1.08820   1.00
O2       1.08820    0.97650    1.02350   1.00
O2       1.02350    0.91180    1.02350   1.00
O2       1.02350    1.08820    0.97650   1.00
O2       1.08820    1.02350    0.97650   1.00
O2       1.02350    1.02350    0.91180   1.00
O2       0.91180    0.97650    0.97650   1.00
O2       0.97650    0.91180    0.97650   1.00
O2       0.97650    0.97650    0.91180   1.00
C1       1.00000    1.00000    1.10520   1.00
C1       1.00000    1.10520    1.00000   1.00
C1       0.89480    1.00000    1.00000   1.00
C1       1.10520    1.00000    1.00000   1.00
C1       1.00000    0.89480    1.00000   1.00
C1       1.00000    1.00000    0.89480   1.00
O1       0.50000    0.50000    1.00000   1.00
Zn1      0.46720    0.53280    1.03280   1.00
Zn1      0.53280    0.46720    1.03280   1.00
Zn1      0.53280    0.53280    0.96720   1.00
Zn1      0.46720    0.46720    0.96720   1.00
O2       0.47650    0.52350    1.08820   1.00
O2       0.47650    0.58820    1.02350   1.00
O2       0.41180    0.52350    1.02350   1.00
O2       0.52350    0.47650    1.08820   1.00
O2       0.58820    0.47650    1.02350   1.00
O2       0.52350    0.41180    1.02350   1.00
O2       0.52350    0.58820    0.97650   1.00
O2       0.58820    0.52350    0.97650   1.00
O2       0.52350    0.52350    0.91180   1.00
O2       0.41180    0.47650    0.97650   1.00
O2       0.47650    0.41180    0.97650   1.00
O2       0.47650    0.47650    0.91180   1.00
C1       0.50000    0.50000    1.10520   1.00
C1       0.50000    0.60520    1.00000   1.00
C1       0.39480    0.50000    1.00000   1.00
C1       0.60520    0.50000    1.00000   1.00
C1       0.50000    0.39480    1.00000   1.00
C1       0.50000    0.50000    0.89480   1.00
O1       0.50000    1.00000    0.50000   1.00
Zn1      0.46720    1.03280    0.53280   1.00
Zn1      0.53280    0.96720    0.53280   1.00
Zn1      0.53280    1.03280    0.46720   1.00
Zn1      0.46720    0.96720    0.46720   1.00
O2       0.47650    1.02350    0.58820   1.00
O2       0.47650    1.08820    0.52350   1.00
O2       0.41180    1.02350    0.52350   1.00
O2       0.52350    0.97650    0.58820   1.00
O2       0.58820    0.97650    0.52350   1.00
O2       0.52350    0.91180    0.52350   1.00
O2       0.52350    1.08820    0.47650   1.00
O2       0.58820    1.02350    0.47650   1.00
O2       0.52350    1.02350    0.41180   1.00
O2       0.41180    0.97650    0.47650   1.00
O2       0.47650    0.91180    0.47650   1.00
O2       0.47650    0.97650    0.41180   1.00
C1       0.50000    1.00000    0.60520   1.00
C1       0.50000    1.10520    0.50000   1.00
C1       0.39480    1.00000    0.50000   1.00
C1       0.60520    1.00000    0.50000   1.00
C1       0.50000    0.89480    0.50000   1.00
C1       0.50000    1.00000    0.39480   1.00
O1       1.00000    0.50000    0.50000   1.00
Zn1      0.96720    0.53280    0.53280   1.00
Zn1      1.03280    0.46720    0.53280   1.00
Zn1      1.03280    0.53280    0.46720   1.00
Zn1      0.96720    0.46720    0.46720   1.00
O2       0.97650    0.52350    0.58820   1.00
O2       0.97650    0.58820    0.52350   1.00
O2       0.91180    0.52350    0.52350   1.00
O2       1.02350    0.47650    0.58820   1.00
O2       1.08820    0.47650    0.52350   1.00
O2       1.02350    0.41180    0.52350   1.00
O2       1.02350    0.58820    0.47650   1.00
O2       1.08820    0.52350    0.47650   1.00
O2       1.02350    0.52350    0.41180   1.00
O2       0.91180    0.47650    0.47650   1.00
O2       0.97650    0.41180    0.47650   1.00
O2       0.97650    0.47650    0.41180   1.00
C1       1.00000    0.50000    0.60520   1.00
C1       1.00000    0.60520    0.50000   1.00
C1       0.89480    0.50000    0.50000   1.00
C1       1.10520    0.50000    0.50000   1.00
C1       1.00000    0.39480    0.50000   1.00
C1       1.00000    0.50000    0.39480   1.00
O1       0.50000    0.50000    0.50000   1.00
Zn1      0.53280    0.46720    0.46720   1.00
Zn1      0.46720    0.53280    0.46720   1.00
Zn1      0.46720    0.46720    0.53280   1.00
Zn1      0.53280    0.53280    0.53280   1.00
O2       0.52350    0.47650    0.41180   1.00
O2       0.52350    0.41180    0.47650   1.00
O2       0.58820    0.47650    0.47650   1.00
O2       0.47650    0.52350    0.41180   1.00
O2       0.41180    0.52350    0.47650   1.00
O2       0.47650    0.58820    0.47650   1.00
O2       0.47650    0.41180    0.52350   1.00
O2       0.41180    0.47650    0.52350   1.00
O2       0.47650    0.47650    0.58820   1.00
O2       0.58820    0.52350    0.52350   1.00
O2       0.52350    0.58820    0.52350   1.00
O2       0.52350    0.52350    0.58820   1.00
C1       0.50000    0.50000    0.39480   1.00
C1       0.50000    0.39480    0.50000   1.00
C1       0.60520    0.50000    0.50000   1.00
C1       0.39480    0.50000    0.50000   1.00
C1       0.50000    0.60520    0.50000   1.00
C1       0.50000    0.50000    0.60520   1.00
O1       1.00000    1.00000    0.50000   1.00
Zn1      1.03280    0.96720    0.46720   1.00
Zn1      0.96720    1.03280    0.46720   1.00
Zn1      0.96720    0.96720    0.53280   1.00
Zn1      1.03280    1.03280    0.53280   1.00
O2       1.02350    0.97650    0.41180   1.00
O2       1.02350    0.91180    0.47650   1.00
O2       1.08820    0.97650    0.47650   1.00
O2       0.97650    1.02350    0.41180   1.00
O2       0.91180    1.02350    0.47650   1.00
O2       0.97650    1.08820    0.47650   1.00
O2       0.97650    0.91180    0.52350   1.00
O2       0.91180    0.97650    0.52350   1.00
O2       0.97650    0.97650    0.58820   1.00
O2       1.08820    1.02350    0.52350   1.00
O2       1.02350    1.08820    0.52350   1.00
O2       1.02350    1.02350    0.58820   1.00
C1       1.00000    1.00000    0.39480   1.00
C1       1.00000    0.89480    0.50000   1.00
C1       1.10520    1.00000    0.50000   1.00
C1       0.89480    1.00000    0.50000   1.00
C1       1.00000    1.10520    0.50000   1.00
C1       1.00000    1.00000    0.60520   1.00
O1       1.00000    0.50000    1.00000   1.00
Zn1      1.03280    0.46720    0.96720   1.00
Zn1      0.96720    0.53280    0.96720   1.00
Zn1      0.96720    0.46720    1.03280   1.00
Zn1      1.03280    0.53280    1.03280   1.00
O2       1.02350    0.47650    0.91180   1.00
O2       1.02350    0.41180    0.97650   1.00
O2       1.08820    0.47650    0.97650   1.00
O2       0.97650    0.52350    0.91180   1.00
O2       0.91180    0.52350    0.97650   1.00
O2       0.97650    0.58820    0.97650   1.00
O2       0.97650    0.41180    1.02350   1.00
O2       0.91180    0.47650    1.02350   1.00
O2       0.97650    0.47650    1.08820   1.00
O2       1.08820    0.52350    1.02350   1.00
O2       1.02350    0.58820    1.02350   1.00
O2       1.02350    0.52350    1.08820   1.00
C1       1.00000    0.50000    0.89480   1.00
C1       1.00000    0.39480    1.00000   1.00
C1       1.10520    0.50000    1.00000   1.00
C1       0.89480    0.50000    1.00000   1.00
C1       1.00000    0.60520    1.00000   1.00
C1       1.00000    0.50000    1.10520   1.00
O1       0.50000    1.00000    1.00000   1.00
Zn1      0.53280    0.96720    0.96720   1.00
Zn1      0.46720    1.03280    0.96720   1.00
Zn1      0.46720    0.96720    1.03280   1.00
Zn1      0.53280    1.03280    1.03280   1.00
O2       0.52350    0.97650    0.91180   1.00
O2       0.52350    0.91180    0.97650   1.00
O2       0.58820    0.97650    0.97650   1.00
O2       0.47650    1.02350    0.91180   1.00
O2       0.41180    1.02350    0.97650   1.00
O2       0.47650    1.08820    0.97650   1.00
O2       0.47650    0.91180    1.02350   1.00
O2       0.41180    0.97650    1.02350   1.00
O2       0.47650    0.97650    1.08820   1.00
O2       0.58820    1.02350    1.02350   1.00
O2       0.52350    1.08820    1.02350   1.00
O2       0.52350    1.02350    1.08820   1.00
C1       0.50000    1.00000    0.89480   1.00
C1       0.50000    0.89480    1.00000   1.00
C1       0.60520    1.00000    1.00000   1.00
C1       0.39480    1.00000    1.00000   1.00
C1       0.50000    1.10520    1.00000   1.00
C1       0.50000    1.00000    1.10520   1.00
C4       0.74993    0.75007    0.97915   1.00
C4       0.75007    0.74993    1.02085   1.00
C3       0.71515    0.74941    0.95708   1.00
C3       0.75679    0.78448    1.04225   1.00
C3       0.78540    0.75092    0.95816   1.00
C3a      0.74292    0.71511    1.04263   1.00
C2       0.75148    0.74971    0.89483   1.00
C2       0.74865    0.75059    1.10517   1.00
C3       0.71598    0.74922    0.91566   1.00
C3       0.75606    0.78474    1.08359   1.00
C3       0.78614    0.75057    0.91680   1.00
C3       0.74220    0.71602    1.08415   1.00
H1       0.68727    0.74902    0.97192   1.00
H1       0.76235    0.81152    1.02685   1.00
H1       0.68875    0.74863    0.89968   1.00
H1       0.76125    0.81186    1.09895   1.00
H1       0.81394    0.75069    0.90179   1.00
H1       0.73689    0.68947    1.10043   1.00
C5       0.73676    0.67632    1.02239   1.00
H1       0.81273    0.75081    0.97401   1.00
H2       0.72776    0.65344    1.04354   1.00
H2       0.71253    0.67911    1.00103   1.00
N1       0.77258    0.66359    1.00292   1.00
C6       0.80728    0.65697    1.02012   1.00
C6       0.77673    0.65598    0.96460   1.00
C6       0.83405    0.64535    0.99243   1.00
C6       0.81462    0.64474    0.95711   1.00
H3       0.81298    0.66060    1.05099   1.00
H3       0.75376    0.65888    0.94309   1.00
H3       0.86435    0.63810    0.99741   1.00
H3       0.82673    0.63700    0.92903   1.00
C4       0.75007    0.97915    0.74993   1.00
C4       0.74993    1.02085    0.75007   1.00
C3       0.74941    0.95708    0.71515   1.00
C3       0.78448    1.04225    0.75679   1.00
C3       0.75092    0.95816    0.78540   1.00
C3a      0.71511    1.04263    0.74292   1.00
C2       0.74971    0.89483    0.75148   1.00
C2       0.75059    1.10517    0.74865   1.00
C3       0.74922    0.91566    0.71598   1.00
C3       0.78474    1.08359    0.75606   1.00
C3       0.75057    0.91680    0.78614   1.00
C3       0.71602    1.08415    0.74220   1.00
H1       0.74902    0.97192    0.68727   1.00
H1       0.81152    1.02685    0.76235   1.00
H1       0.74863    0.89968    0.68875   1.00
H1       0.81186    1.09895    0.76125   1.00
H1       0.75069    0.90179    0.81394   1.00
H1       0.68947    1.10043    0.73689   1.00
C5       0.67632    1.02239    0.73676   1.00
H1       0.75081    0.97401    0.81273   1.00
H2       0.65344    1.04354    0.72776   1.00
H2       0.67911    1.00103    0.71253   1.00
N1       0.66359    1.00292    0.77258   1.00
C6       0.65697    1.02012    0.80728   1.00
C6       0.65598    0.96460    0.77673   1.00
C6       0.64535    0.99243    0.83405   1.00
C6       0.64474    0.95711    0.81462   1.00
H3       0.66060    1.05099    0.81298   1.00
H3       0.65888    0.94309    0.75376   1.00
H3       0.63810    0.99741    0.86435   1.00
H3       0.63700    0.92903    0.82673   1.00
C4       0.52085    0.74993    0.74993   1.00
C4       0.47915    0.75007    0.75007   1.00
C3       0.54292    0.71515    0.75059   1.00
C3       0.45775    0.75679    0.71552   1.00
C3       0.54184    0.78540    0.74908   1.00
C3a      0.45737    0.74292    0.78489   1.00
C2       0.60517    0.75148    0.75029   1.00
C2       0.39483    0.74865    0.74941   1.00
C3       0.58434    0.71598    0.75078   1.00
C3       0.41641    0.75606    0.71526   1.00
C3       0.58320    0.78614    0.74943   1.00
C3       0.41585    0.74220    0.78398   1.00
H1       0.52808    0.68727    0.75098   1.00
H1       0.47315    0.76235    0.68848   1.00
H1       0.60032    0.68875    0.75137   1.00
H1       0.40105    0.76125    0.68814   1.00
H1       0.59821    0.81394    0.74931   1.00
H1       0.39957    0.73689    0.81053   1.00
C5       0.47761    0.73676    0.82368   1.00
H1       0.52599    0.81273    0.74919   1.00
H2       0.45646    0.72776    0.84656   1.00
H2       0.49897    0.71253    0.82089   1.00
N1       0.49708    0.77258    0.83641   1.00
C6       0.47988    0.80728    0.84303   1.00
C6       0.53540    0.77673    0.84402   1.00
C6       0.50757    0.83405    0.85465   1.00
C6       0.54289    0.81462    0.85526   1.00
H3       0.44901    0.81298    0.83940   1.00
H3       0.55691    0.75376    0.84112   1.00
H3       0.50259    0.86435    0.86190   1.00
H3       0.57097    0.82673    0.86300   1.00
C4       0.97915    0.74993    0.75007   1.00
C4       1.02085    0.75007    0.74993   1.00
C3       0.95708    0.71515    0.74941   1.00
C3       1.04225    0.75679    0.78448   1.00
C3       0.95816    0.78540    0.75092   1.00
C3a      1.04263    0.74292    0.71511   1.00
C2       0.89483    0.75148    0.74971   1.00
C2       1.10517    0.74865    0.75059   1.00
C3       0.91566    0.71598    0.74922   1.00
C3       1.08359    0.75606    0.78474   1.00
C3       0.91680    0.78614    0.75057   1.00
C3       1.08415    0.74220    0.71602   1.00
H1       0.97192    0.68727    0.74902   1.00
H1       1.02685    0.76235    0.81152   1.00
H1       0.89968    0.68875    0.74863   1.00
H1       1.09895    0.76125    0.81186   1.00
H1       0.90179    0.81394    0.75069   1.00
H1       1.10043    0.73689    0.68947   1.00
C5       1.02239    0.73676    0.67632   1.00
H1       0.97401    0.81273    0.75081   1.00
H2       1.04354    0.72776    0.65344   1.00
H2       1.00103    0.71253    0.67911   1.00
N1       1.00292    0.77258    0.66359   1.00
C6       1.02012    0.80728    0.65697   1.00
C6       0.96460    0.77673    0.65598   1.00
C6       0.99243    0.83405    0.64535   1.00
C6       0.95711    0.81462    0.64474   1.00
H3       1.05099    0.81298    0.66060   1.00
H3       0.94309    0.75376    0.65888   1.00
H3       0.99741    0.86435    0.63810   1.00
H3       0.92903    0.82673    0.63700   1.00
C4       0.74993    0.52085    0.74993   1.00
C4       0.75007    0.47915    0.75007   1.00
C3       0.75059    0.54292    0.71515   1.00
C3       0.71552    0.45775    0.75679   1.00
C3       0.74908    0.54184    0.78540   1.00
C3a      0.78489    0.45737    0.74292   1.00
C2       0.75029    0.60517    0.75148   1.00
C2       0.74941    0.39483    0.74865   1.00
C3       0.75078    0.58434    0.71598   1.00
C3       0.71526    0.41641    0.75606   1.00
C3       0.74943    0.58320    0.78614   1.00
C3       0.78398    0.41585    0.74220   1.00
H1       0.75098    0.52808    0.68727   1.00
H1       0.68848    0.47315    0.76235   1.00
H1       0.75137    0.60032    0.68875   1.00
H1       0.68814    0.40105    0.76125   1.00
H1       0.74931    0.59821    0.81394   1.00
H1       0.81053    0.39957    0.73689   1.00
C5       0.82368    0.47761    0.73676   1.00
H1       0.74919    0.52599    0.81273   1.00
H2       0.84656    0.45646    0.72776   1.00
H2       0.82089    0.49897    0.71253   1.00
N1       0.83641    0.49708    0.77258   1.00
C6       0.84303    0.47988    0.80728   1.00
C6       0.84402    0.53540    0.77673   1.00
C6       0.85465    0.50757    0.83405   1.00
C6       0.85526    0.54289    0.81462   1.00
H3       0.83940    0.44901    0.81298   1.00
H3       0.84112    0.55691    0.75376   1.00
H3       0.86190    0.50259    0.86435   1.00
H3       0.86300    0.57097    0.82673   1.00
C4       0.74993    0.74993    0.52085   1.00
C4       0.75007    0.75007    0.47915   1.00
C3       0.71515    0.75059    0.54292   1.00
C3       0.75679    0.71552    0.45775   1.00
C3       0.78540    0.74908    0.54184   1.00
C3a      0.74292    0.78489    0.45737   1.00
C2       0.75148    0.75029    0.60517   1.00
C2       0.74865    0.74941    0.39483   1.00
C3       0.71598    0.75078    0.58434   1.00
C3       0.75606    0.71526    0.41641   1.00
C3       0.78614    0.74943    0.58320   1.00
C3       0.74220    0.78398    0.41585   1.00
H1       0.68727    0.75098    0.52808   1.00
H1       0.76235    0.68848    0.47315   1.00
H1       0.68875    0.75137    0.60032   1.00
H1       0.76125    0.68814    0.40105   1.00
H1       0.81394    0.74931    0.59821   1.00
H1       0.73689    0.81053    0.39957   1.00
C5       0.73676    0.82368    0.47761   1.00
H1       0.81273    0.74919    0.52599   1.00
H2       0.72776    0.84656    0.45646   1.00
H2       0.71253    0.82089    0.49897   1.00
N1       0.77258    0.83641    0.49708   1.00
C6       0.80728    0.84303    0.47988   1.00
C6       0.77673    0.84402    0.53540   1.00
C6       0.83405    0.85465    0.50757   1.00
C6       0.81462    0.85526    0.54289   1.00
H3       0.81298    0.83940    0.44901   1.00
H3       0.75376    0.84112    0.55691   1.00
H3       0.86435    0.86190    0.50259   1.00
H3       0.82673    0.86300    0.57097   1.00
C4       0.24993    0.25007    0.97915   1.00
C4       0.25007    0.24993    1.02085   1.00
C3       0.21515    0.24941    0.95708   1.00
C3       0.25679    0.28448    1.04225   1.00
C3       0.28540    0.25092    0.95816   1.00
C3a      0.24292    0.21511    1.04263   1.00
C2       0.25148    0.24971    0.89483   1.00
C2       0.24865    0.25059    1.10517   1.00
C3       0.21598    0.24922    0.91566   1.00
C3       0.25606    0.28474    1.08359   1.00
C3       0.28614    0.25057    0.91680   1.00
C3       0.24220    0.21602    1.08415   1.00
H1       0.18727    0.24902    0.97192   1.00
H1       0.26235    0.31152    1.02685   1.00
H1       0.18875    0.24863    0.89968   1.00
H1       0.26125    0.31186    1.09895   1.00
H1       0.31394    0.25069    0.90179   1.00
H1       0.23689    0.18947    1.10043   1.00
C5       0.23676    0.17632    1.02239   1.00
H1       0.31273    0.25081    0.97401   1.00
H2       0.22776    0.15344    1.04354   1.00
H2       0.21253    0.17911    1.00103   1.00
N1       0.27258    0.16359    1.00292   1.00
C6       0.30728    0.15697    1.02012   1.00
C6       0.27673    0.15598    0.96460   1.00
C6       0.33405    0.14535    0.99243   1.00
C6       0.31462    0.14474    0.95711   1.00
H3       0.31298    0.16060    1.05099   1.00
H3       0.25376    0.15888    0.94309   1.00
H3       0.36435    0.13810    0.99741   1.00
H3       0.32673    0.13700    0.92903   1.00
C4       0.25007    0.47915    0.74993   1.00
C4       0.24993    0.52085    0.75007   1.00
C3       0.24941    0.45708    0.71515   1.00
C3       0.28448    0.54225    0.75679   1.00
C3       0.25092    0.45816    0.78540   1.00
C3a      0.21511    0.54263    0.74292   1.00
C2       0.24971    0.39483    0.75148   1.00
C2       0.25059    0.60517    0.74865   1.00
C3       0.24922    0.41566    0.71598   1.00
C3       0.28474    0.58359    0.75606   1.00
C3       0.25057    0.41680    0.78614   1.00
C3       0.21602    0.58415    0.74220   1.00
H1       0.24902    0.47192    0.68727   1.00
H1       0.31152    0.52685    0.76235   1.00
H1       0.24863    0.39968    0.68875   1.00
H1       0.31186    0.59895    0.76125   1.00
H1       0.25069    0.40179    0.81394   1.00
H1       0.18947    0.60043    0.73689   1.00
C5       0.17632    0.52239    0.73676   1.00
H1       0.25081    0.47401    0.81273   1.00
H2       0.15344    0.54354    0.72776   1.00
H2       0.17911    0.50103    0.71253   1.00
N1       0.16359    0.50292    0.77258   1.00
C6       0.15697    0.52012    0.80728   1.00
C6       0.15598    0.46460    0.77673   1.00
C6       0.14535    0.49243    0.83405   1.00
C6       0.14474    0.45711    0.81462   1.00
H3       0.16060    0.55099    0.81298   1.00
H3       0.15888    0.44309    0.75376   1.00
H3       0.13810    0.49741    0.86435   1.00
H3       0.13700    0.42903    0.82673   1.00
C4       0.02085    0.24993    0.74993   1.00
C4       -0.02085   0.25007    0.75007   1.00
C3       0.04292    0.21515    0.75059   1.00
C3       -0.04225   0.25679    0.71552   1.00
C3       0.04184    0.28540    0.74908   1.00
C3a      -0.04263   0.24292    0.78489   1.00
C2       0.10517    0.25148    0.75029   1.00
C2       -0.10517   0.24865    0.74941   1.00
C3       0.08434    0.21598    0.75078   1.00
C3       -0.08359   0.25606    0.71526   1.00
C3       0.08320    0.28614    0.74943   1.00
C3       -0.08415   0.24220    0.78398   1.00
H1       0.02808    0.18727    0.75098   1.00
H1       -0.02685   0.26235    0.68848   1.00
H1       0.10032    0.18875    0.75137   1.00
H1       -0.09895   0.26125    0.68814   1.00
H1       0.09821    0.31394    0.74931   1.00
H1       -0.10043   0.23689    0.81053   1.00
C5       -0.02239   0.23676    0.82368   1.00
H1       0.02599    0.31273    0.74919   1.00
H2       -0.04354   0.22776    0.84656   1.00
H2       -0.00103   0.21253    0.82089   1.00
N1       -0.00292   0.27258    0.83641   1.00
C6       -0.02012   0.30728    0.84303   1.00
C6       0.03540    0.27673    0.84402   1.00
C6       0.00757    0.33405    0.85465   1.00
C6       0.04289    0.31462    0.85526   1.00
H3       -0.05099   0.31298    0.83940   1.00
H3       0.05691    0.25376    0.84112   1.00
H3       0.00259    0.36435    0.86190   1.00
H3       0.07097    0.32673    0.86300   1.00
C4       0.47915    0.24993    0.75007   1.00
C4       0.52085    0.25007    0.74993   1.00
C3       0.45708    0.21515    0.74941   1.00
C3       0.54225    0.25679    0.78448   1.00
C3       0.45816    0.28540    0.75092   1.00
C3a      0.54263    0.24292    0.71511   1.00
C2       0.39483    0.25148    0.74971   1.00
C2       0.60517    0.24865    0.75059   1.00
C3       0.41566    0.21598    0.74922   1.00
C3       0.58359    0.25606    0.78474   1.00
C3       0.41680    0.28614    0.75057   1.00
C3       0.58415    0.24220    0.71602   1.00
H1       0.47192    0.18727    0.74902   1.00
H1       0.52685    0.26235    0.81152   1.00
H1       0.39968    0.18875    0.74863   1.00
H1       0.59895    0.26125    0.81186   1.00
H1       0.40179    0.31394    0.75069   1.00
H1       0.60043    0.23689    0.68947   1.00
C5       0.52239    0.23676    0.67632   1.00
H1       0.47401    0.31273    0.75081   1.00
H2       0.54354    0.22776    0.65344   1.00
H2       0.50103    0.21253    0.67911   1.00
N1       0.50292    0.27258    0.66359   1.00
C6       0.52012    0.30728    0.65697   1.00
C6       0.46460    0.27673    0.65598   1.00
C6       0.49243    0.33405    0.64535   1.00
C6       0.45711    0.31462    0.64474   1.00
H3       0.55099    0.31298    0.66060   1.00
H3       0.44309    0.25376    0.65888   1.00
H3       0.49741    0.36435    0.63810   1.00
H3       0.42903    0.32673    0.63700   1.00
C4       0.24993    0.02085    0.74993   1.00
C4       0.25007    -0.02085   0.75007   1.00
C3       0.25059    0.04292    0.71515   1.00
C3       0.21552    -0.04225   0.75679   1.00
C3       0.24908    0.04184    0.78540   1.00
C3a      0.28489    -0.04263   0.74292   1.00
C2       0.25029    0.10517    0.75148   1.00
C2       0.24941    -0.10517   0.74865   1.00
C3       0.25078    0.08434    0.71598   1.00
C3       0.21526    -0.08359   0.75606   1.00
C3       0.24943    0.08320    0.78614   1.00
C3       0.28398    -0.08415   0.74220   1.00
H1       0.25098    0.02808    0.68727   1.00
H1       0.18848    -0.02685   0.76235   1.00
H1       0.25137    0.10032    0.68875   1.00
H1       0.18814    -0.09895   0.76125   1.00
H1       0.24931    0.09821    0.81394   1.00
H1       0.31053    -0.10043   0.73689   1.00
C5       0.32368    -0.02239   0.73676   1.00
H1       0.24919    0.02599    0.81273   1.00
H2       0.34656    -0.04354   0.72776   1.00
H2       0.32089    -0.00103   0.71253   1.00
N1       0.33641    -0.00292   0.77258   1.00
C6       0.34303    -0.02012   0.80728   1.00
C6       0.34402    0.03540    0.77673   1.00
C6       0.35465    0.00757    0.83405   1.00
C6       0.35526    0.04289    0.81462   1.00
H3       0.33940    -0.05099   0.81298   1.00
H3       0.34112    0.05691    0.75376   1.00
H3       0.36190    0.00259    0.86435   1.00
H3       0.36300    0.07097    0.82673   1.00
C4       0.24993    0.24993    0.52085   1.00
C4       0.25007    0.25007    0.47915   1.00
C3       0.21515    0.25059    0.54292   1.00
C3       0.25679    0.21552    0.45775   1.00
C3       0.28540    0.24908    0.54184   1.00
C3a      0.24292    0.28489    0.45737   1.00
C2       0.25148    0.25029    0.60517   1.00
C2       0.24865    0.24941    0.39483   1.00
C3       0.21598    0.25078    0.58434   1.00
C3       0.25606    0.21526    0.41641   1.00
C3       0.28614    0.24943    0.58320   1.00
C3       0.24220    0.28398    0.41585   1.00
H1       0.18727    0.25098    0.52808   1.00
H1       0.26235    0.18848    0.47315   1.00
H1       0.18875    0.25137    0.60032   1.00
H1       0.26125    0.18814    0.40105   1.00
H1       0.31394    0.24931    0.59821   1.00
H1       0.23689    0.31053    0.39957   1.00
C5       0.23676    0.32368    0.47761   1.00
H1       0.31273    0.24919    0.52599   1.00
H2       0.22776    0.34656    0.45646   1.00
H2       0.21253    0.32089    0.49897   1.00
N1       0.27258    0.33641    0.49708   1.00
C6       0.30728    0.34303    0.47988   1.00
C6       0.27673    0.34402    0.53540   1.00
C6       0.33405    0.35465    0.50757   1.00
C6       0.31462    0.35526    0.54289   1.00
H3       0.31298    0.33940    0.44901   1.00
H3       0.25376    0.34112    0.55691   1.00
H3       0.36435    0.36190    0.50259   1.00
H3       0.32673    0.36300    0.57097   1.00
C4       0.24993    0.75007    0.47915   1.00
C4       0.25007    0.74993    0.52085   1.00
C3       0.21515    0.74941    0.45708   1.00
C3       0.25679    0.78448    0.54225   1.00
C3       0.28540    0.75092    0.45816   1.00
C3a      0.24292    0.71511    0.54263   1.00
C2       0.25148    0.74971    0.39483   1.00
C2       0.24865    0.75059    0.60517   1.00
C3       0.21598    0.74922    0.41566   1.00
C3       0.25606    0.78474    0.58359   1.00
C3       0.28614    0.75057    0.41680   1.00
C3       0.24220    0.71602    0.58415   1.00
H1       0.18727    0.74902    0.47192   1.00
H1       0.26235    0.81152    0.52685   1.00
H1       0.18875    0.74863    0.39968   1.00
H1       0.26125    0.81186    0.59895   1.00
H1       0.31394    0.75069    0.40179   1.00
H1       0.23689    0.68947    0.60043   1.00
C5       0.23676    0.67632    0.52239   1.00
H1       0.31273    0.75081    0.47401   1.00
H2       0.22776    0.65344    0.54354   1.00
H2       0.21253    0.67911    0.50103   1.00
N1       0.27258    0.66359    0.50292   1.00
C6       0.30728    0.65697    0.52012   1.00
C6       0.27673    0.65598    0.46460   1.00
C6       0.33405    0.64535    0.49243   1.00
C6       0.31462    0.64474    0.45711   1.00
H3       0.31298    0.66060    0.55099   1.00
H3       0.25376    0.65888    0.44309   1.00
H3       0.36435    0.63810    0.49741   1.00
H3       0.32673    0.63700    0.42903   1.00
C4       0.25007    0.97915    0.24993   1.00
C4       0.24993    1.02085    0.25007   1.00
C3       0.24941    0.95708    0.21515   1.00
C3       0.28448    1.04225    0.25679   1.00
C3       0.25092    0.95816    0.28540   1.00
C3a      0.21511    1.04263    0.24292   1.00
C2       0.24971    0.89483    0.25148   1.00
C2       0.25059    1.10517    0.24865   1.00
C3       0.24922    0.91566    0.21598   1.00
C3       0.28474    1.08359    0.25606   1.00
C3       0.25057    0.91680    0.28614   1.00
C3       0.21602    1.08415    0.24220   1.00
H1       0.24902    0.97192    0.18727   1.00
H1       0.31152    1.02685    0.26235   1.00
H1       0.24863    0.89968    0.18875   1.00
H1       0.31186    1.09895    0.26125   1.00
H1       0.25069    0.90179    0.31394   1.00
H1       0.18947    1.10043    0.23689   1.00
C5       0.17632    1.02239    0.23676   1.00
H1       0.25081    0.97401    0.31273   1.00
H2       0.15344    1.04354    0.22776   1.00
H2       0.17911    1.00103    0.21253   1.00
N1       0.16359    1.00292    0.27258   1.00
C6       0.15697    1.02012    0.30728   1.00
C6       0.15598    0.96460    0.27673   1.00
C6       0.14535    0.99243    0.33405   1.00
C6       0.14474    0.95711    0.31462   1.00
H3       0.16060    1.05099    0.31298   1.00
H3       0.15888    0.94309    0.25376   1.00
H3       0.13810    0.99741    0.36435   1.00
H3       0.13700    0.92903    0.32673   1.00
C4       0.02085    0.74993    0.24993   1.00
C4       -0.02085   0.75007    0.25007   1.00
C3       0.04292    0.71515    0.25059   1.00
C3       -0.04225   0.75679    0.21552   1.00
C3       0.04184    0.78540    0.24908   1.00
C3a      -0.04263   0.74292    0.28489   1.00
C2       0.10517    0.75148    0.25029   1.00
C2       -0.10517   0.74865    0.24941   1.00
C3       0.08434    0.71598    0.25078   1.00
C3       -0.08359   0.75606    0.21526   1.00
C3       0.08320    0.78614    0.24943   1.00
C3       -0.08415   0.74220    0.28398   1.00
H1       0.02808    0.68727    0.25098   1.00
H1       -0.02685   0.76235    0.18848   1.00
H1       0.10032    0.68875    0.25137   1.00
H1       -0.09895   0.76125    0.18814   1.00
H1       0.09821    0.81394    0.24931   1.00
H1       -0.10043   0.73689    0.31053   1.00
C5       -0.02239   0.73676    0.32368   1.00
H1       0.02599    0.81273    0.24919   1.00
H2       -0.04354   0.72776    0.34656   1.00
H2       -0.00103   0.71253    0.32089   1.00
N1       -0.00292   0.77258    0.33641   1.00
C6       -0.02012   0.80728    0.34303   1.00
C6       0.03540    0.77673    0.34402   1.00
C6       0.00757    0.83405    0.35465   1.00
C6       0.04289    0.81462    0.35526   1.00
H3       -0.05099   0.81298    0.33940   1.00
H3       0.05691    0.75376    0.34112   1.00
H3       0.00259    0.86435    0.36190   1.00
H3       0.07097    0.82673    0.36300   1.00
C4       0.47915    0.74993    0.25007   1.00
C4       0.52085    0.75007    0.24993   1.00
C3       0.45708    0.71515    0.24941   1.00
C3       0.54225    0.75679    0.28448   1.00
C3       0.45816    0.78540    0.25092   1.00
C3a      0.54263    0.74292    0.21511   1.00
C2       0.39483    0.75148    0.24971   1.00
C2       0.60517    0.74865    0.25059   1.00
C3       0.41566    0.71598    0.24922   1.00
C3       0.58359    0.75606    0.28474   1.00
C3       0.41680    0.78614    0.25057   1.00
C3       0.58415    0.74220    0.21602   1.00
H1       0.47192    0.68727    0.24902   1.00
H1       0.52685    0.76235    0.31152   1.00
H1       0.39968    0.68875    0.24863   1.00
H1       0.59895    0.76125    0.31186   1.00
H1       0.40179    0.81394    0.25069   1.00
H1       0.60043    0.73689    0.18947   1.00
C5       0.52239    0.73676    0.17632   1.00
H1       0.47401    0.81273    0.25081   1.00
H2       0.54354    0.72776    0.15344   1.00
H2       0.50103    0.71253    0.17911   1.00
N1       0.50292    0.77258    0.16359   1.00
C6       0.52012    0.80728    0.15697   1.00
C6       0.46460    0.77673    0.15598   1.00
C6       0.49243    0.83405    0.14535   1.00
C6       0.45711    0.81462    0.14474   1.00
H3       0.55099    0.81298    0.16060   1.00
H3       0.44309    0.75376    0.15888   1.00
H3       0.49741    0.86435    0.13810   1.00
H3       0.42903    0.82673    0.13700   1.00
C4       0.24993    0.52085    0.24993   1.00
C4       0.25007    0.47915    0.25007   1.00
C3       0.25059    0.54292    0.21515   1.00
C3       0.21552    0.45775    0.25679   1.00
C3       0.24908    0.54184    0.28540   1.00
C3a      0.28489    0.45737    0.24292   1.00
C2       0.25029    0.60517    0.25148   1.00
C2       0.24941    0.39483    0.24865   1.00
C3       0.25078    0.58434    0.21598   1.00
C3       0.21526    0.41641    0.25606   1.00
C3       0.24943    0.58320    0.28614   1.00
C3       0.28398    0.41585    0.24220   1.00
H1       0.25098    0.52808    0.18727   1.00
H1       0.18848    0.47315    0.26235   1.00
H1       0.25137    0.60032    0.18875   1.00
H1       0.18814    0.40105    0.26125   1.00
H1       0.24931    0.59821    0.31394   1.00
H1       0.31053    0.39957    0.23689   1.00
C5       0.32368    0.47761    0.23676   1.00
H1       0.24919    0.52599    0.31273   1.00
H2       0.34656    0.45646    0.22776   1.00
H2       0.32089    0.49897    0.21253   1.00
N1       0.33641    0.49708    0.27258   1.00
C6       0.34303    0.47988    0.30728   1.00
C6       0.34402    0.53540    0.27673   1.00
C6       0.35465    0.50757    0.33405   1.00
C6       0.35526    0.54289    0.31462   1.00
H3       0.33940    0.44901    0.31298   1.00
H3       0.34112    0.55691    0.25376   1.00
H3       0.36190    0.50259    0.36435   1.00
H3       0.36300    0.57097    0.32673   1.00
C4       0.24993    0.74993    0.02085   1.00
C4       0.25007    0.75007    -0.02085   1.00
C3       0.21515    0.75059    0.04292   1.00
C3       0.25679    0.71552    -0.04225   1.00
C3       0.28540    0.74908    0.04184   1.00
C3a      0.24292    0.78489    -0.04263   1.00
C2       0.25148    0.75029    0.10517   1.00
C2       0.24865    0.74941    -0.10517   1.00
C3       0.21598    0.75078    0.08434   1.00
C3       0.25606    0.71526    -0.08359   1.00
C3       0.28614    0.74943    0.08320   1.00
C3       0.24220    0.78398    -0.08415   1.00
H1       0.18727    0.75098    0.02808   1.00
H1       0.26235    0.68848    -0.02685   1.00
H1       0.18875    0.75137    0.10032   1.00
H1       0.26125    0.68814    -0.09895   1.00
H1       0.31394    0.74931    0.09821   1.00
H1       0.23689    0.81053    -0.10043   1.00
C5       0.23676    0.82368    -0.02239   1.00
H1       0.31273    0.74919    0.02599   1.00
H2       0.22776    0.84656    -0.04354   1.00
H2       0.21253    0.82089    -0.00103   1.00
N1       0.27258    0.83641    -0.00292   1.00
C6       0.30728    0.84303    -0.02012   1.00
C6       0.27673    0.84402    0.03540   1.00
C6       0.33405    0.85465    0.00757   1.00
C6       0.31462    0.85526    0.04289   1.00
H3       0.31298    0.83940    -0.05099   1.00
H3       0.25376    0.84112    0.05691   1.00
H3       0.36435    0.86190    0.00259   1.00
H3       0.32673    0.86300    0.07097   1.00
C4       0.74993    0.25007    0.47915   1.00
C4       0.75007    0.24993    0.52085   1.00
C3       0.71515    0.24941    0.45708   1.00
C3       0.75679    0.28448    0.54225   1.00
C3       0.78540    0.25092    0.45816   1.00
C3a      0.74292    0.21511    0.54263   1.00
C2       0.75148    0.24971    0.39483   1.00
C2       0.74865    0.25059    0.60517   1.00
C3       0.71598    0.24922    0.41566   1.00
C3       0.75606    0.28474    0.58359   1.00
C3       0.78614    0.25057    0.41680   1.00
C3       0.74220    0.21602    0.58415   1.00
H1       0.68727    0.24902    0.47192   1.00
H1       0.76235    0.31152    0.52685   1.00
H1       0.68875    0.24863    0.39968   1.00
H1       0.76125    0.31186    0.59895   1.00
H1       0.81394    0.25069    0.40179   1.00
H1       0.73689    0.18947    0.60043   1.00
C5       0.73676    0.17632    0.52239   1.00
H1       0.81273    0.25081    0.47401   1.00
H2       0.72776    0.15344    0.54354   1.00
H2       0.71253    0.17911    0.50103   1.00
N1       0.77258    0.16359    0.50292   1.00
C6       0.80728    0.15697    0.52012   1.00
C6       0.77673    0.15598    0.46460   1.00
C6       0.83405    0.14535    0.49243   1.00
C6       0.81462    0.14474    0.45711   1.00
H3       0.81298    0.16060    0.55099   1.00
H3       0.75376    0.15888    0.44309   1.00
H3       0.86435    0.13810    0.49741   1.00
H3       0.82673    0.13700    0.42903   1.00
C4       0.75007    0.47915    0.24993   1.00
C4       0.74993    0.52085    0.25007   1.00
C3       0.74941    0.45708    0.21515   1.00
C3       0.78448    0.54225    0.25679   1.00
C3       0.75092    0.45816    0.28540   1.00
C3a      0.71511    0.54263    0.24292   1.00
C2       0.74971    0.39483    0.25148   1.00
C2       0.75059    0.60517    0.24865   1.00
C3       0.74922    0.41566    0.21598   1.00
C3       0.78474    0.58359    0.25606   1.00
C3       0.75057    0.41680    0.28614   1.00
C3       0.71602    0.58415    0.24220   1.00
H1       0.74902    0.47192    0.18727   1.00
H1       0.81152    0.52685    0.26235   1.00
H1       0.74863    0.39968    0.18875   1.00
H1       0.81186    0.59895    0.26125   1.00
H1       0.75069    0.40179    0.31394   1.00
H1       0.68947    0.60043    0.23689   1.00
C5       0.67632    0.52239    0.23676   1.00
H1       0.75081    0.47401    0.31273   1.00
H2       0.65344    0.54354    0.22776   1.00
H2       0.67911    0.50103    0.21253   1.00
N1       0.66359    0.50292    0.27258   1.00
C6       0.65697    0.52012    0.30728   1.00
C6       0.65598    0.46460    0.27673   1.00
C6       0.64535    0.49243    0.33405   1.00
C6       0.64474    0.45711    0.31462   1.00
H3       0.66060    0.55099    0.31298   1.00
H3       0.65888    0.44309    0.25376   1.00
H3       0.63810    0.49741    0.36435   1.00
H3       0.63700    0.42903    0.32673   1.00
C4       0.52085    0.24993    0.24993   1.00
C4       0.47915    0.25007    0.25007   1.00
C3       0.54292    0.21515    0.25059   1.00
C3       0.45775    0.25679    0.21552   1.00
C3       0.54184    0.28540    0.24908   1.00
C3a      0.45737    0.24292    0.28489   1.00
C2       0.60517    0.25148    0.25029   1.00
C2       0.39483    0.24865    0.24941   1.00
C3       0.58434    0.21598    0.25078   1.00
C3       0.41641    0.25606    0.21526   1.00
C3       0.58320    0.28614    0.24943   1.00
C3       0.41585    0.24220    0.28398   1.00
H1       0.52808    0.18727    0.25098   1.00
H1       0.47315    0.26235    0.18848   1.00
H1       0.60032    0.18875    0.25137   1.00
H1       0.40105    0.26125    0.18814   1.00
H1       0.59821    0.31394    0.24931   1.00
H1       0.39957    0.23689    0.31053   1.00
C5       0.47761    0.23676    0.32368   1.00
H1       0.52599    0.31273    0.24919   1.00
H2       0.45646    0.22776    0.34656   1.00
H2       0.49897    0.21253    0.32089   1.00
N1       0.49708    0.27258    0.33641   1.00
C6       0.47988    0.30728    0.34303   1.00
C6       0.53540    0.27673    0.34402   1.00
C6       0.50757    0.33405    0.35465   1.00
C6       0.54289    0.31462    0.35526   1.00
H3       0.44901    0.31298    0.33940   1.00
H3       0.55691    0.25376    0.34112   1.00
H3       0.50259    0.36435    0.36190   1.00
H3       0.57097    0.32673    0.36300   1.00
C4       0.97915    0.24993    0.25007   1.00
C4       1.02085    0.25007    0.24993   1.00
C3       0.95708    0.21515    0.24941   1.00
C3       1.04225    0.25679    0.28448   1.00
C3       0.95816    0.28540    0.25092   1.00
C3a      1.04263    0.24292    0.21511   1.00
C2       0.89483    0.25148    0.24971   1.00
C2       1.10517    0.24865    0.25059   1.00
C3       0.91566    0.21598    0.24922   1.00
C3       1.08359    0.25606    0.28474   1.00
C3       0.91680    0.28614    0.25057   1.00
C3       1.08415    0.24220    0.21602   1.00
H1       0.97192    0.18727    0.24902   1.00
H1       1.02685    0.26235    0.31152   1.00
H1       0.89968    0.18875    0.24863   1.00
H1       1.09895    0.26125    0.31186   1.00
H1       0.90179    0.31394    0.25069   1.00
H1       1.10043    0.23689    0.18947   1.00
C5       1.02239    0.23676    0.17632   1.00
H1       0.97401    0.31273    0.25081   1.00
H2       1.04354    0.22776    0.15344   1.00
H2       1.00103    0.21253    0.17911   1.00
N1       1.00292    0.27258    0.16359   1.00
C6       1.02012    0.30728    0.15697   1.00
C6       0.96460    0.27673    0.15598   1.00
C6       0.99243    0.33405    0.14535   1.00
C6       0.95711    0.31462    0.14474   1.00
H3       1.05099    0.31298    0.16060   1.00
H3       0.94309    0.25376    0.15888   1.00
H3       0.99741    0.36435    0.13810   1.00
H3       0.92903    0.32673    0.13700   1.00
C4       0.74993    0.02085    0.24993   1.00
C4       0.75007    -0.02085   0.25007   1.00
C3       0.75059    0.04292    0.21515   1.00
C3       0.71552    -0.04225   0.25679   1.00
C3       0.74908    0.04184    0.28540   1.00
C3a      0.78489    -0.04263   0.24292   1.00
C2       0.75029    0.10517    0.25148   1.00
C2       0.74941    -0.10517   0.24865   1.00
C3       0.75078    0.08434    0.21598   1.00
C3       0.71526    -0.08359   0.25606   1.00
C3       0.74943    0.08320    0.28614   1.00
C3       0.78398    -0.08415   0.24220   1.00
H1       0.75098    0.02808    0.18727   1.00
H1       0.68848    -0.02685   0.26235   1.00
H1       0.75137    0.10032    0.18875   1.00
H1       0.68814    -0.09895   0.26125   1.00
H1       0.74931    0.09821    0.31394   1.00
H1       0.81053    -0.10043   0.23689   1.00
C5       0.82368    -0.02239   0.23676   1.00
H1       0.74919    0.02599    0.31273   1.00
H2       0.84656    -0.04354   0.22776   1.00
H2       0.82089    -0.00103   0.21253   1.00
N1       0.83641    -0.00292   0.27258   1.00
C6       0.84303    -0.02012   0.30728   1.00
C6       0.84402    0.03540    0.27673   1.00
C6       0.85465    0.00757    0.33405   1.00
C6       0.85526    0.04289    0.31462   1.00
H3       0.83940    -0.05099   0.31298   1.00
H3       0.84112    0.05691    0.25376   1.00
H3       0.86190    0.00259    0.36435   1.00
H3       0.86300    0.07097    0.32673   1.00
C4       0.74993    0.24993    0.02085   1.00
C4       0.75007    0.25007    -0.02085   1.00
C3       0.71515    0.25059    0.04292   1.00
C3       0.75679    0.21552    -0.04225   1.00
C3       0.78540    0.24908    0.04184   1.00
C3a      0.74292    0.28489    -0.04263   1.00
C2       0.75148    0.25029    0.10517   1.00
C2       0.74865    0.24941    -0.10517   1.00
C3       0.71598    0.25078    0.08434   1.00
C3       0.75606    0.21526    -0.08359   1.00
C3       0.78614    0.24943    0.08320   1.00
C3       0.74220    0.28398    -0.08415   1.00
H1       0.68727    0.25098    0.02808   1.00
H1       0.76235    0.18848    -0.02685   1.00
H1       0.68875    0.25137    0.10032   1.00
H1       0.76125    0.18814    -0.09895   1.00
H1       0.81394    0.24931    0.09821   1.00
H1       0.73689    0.31053    -0.10043   1.00
C5       0.73676    0.32368    -0.02239   1.00
H1       0.81273    0.24919    0.02599   1.00
H2       0.72776    0.34656    -0.04354   1.00
H2       0.71253    0.32089    -0.00103   1.00
N1       0.77258    0.33641    -0.00292   1.00
C6       0.80728    0.34303    -0.02012   1.00
C6       0.77673    0.34402    0.03540   1.00
C6       0.83405    0.35465    0.00757   1.00
C6       0.81462    0.35526    0.04289   1.00
H3       0.81298    0.33940    -0.05099   1.00
H3       0.75376    0.34112    0.05691   1.00
H3       0.86435    0.36190    0.00259   1.00
H3       0.82673    0.36300    0.07097   1.00
C4       0.99993    1.00007    1.22915   1.00
C4       1.00007    0.99993    1.27085   1.00
C3       0.96515    0.99941    1.20708   1.00
C3       1.00679    1.03448    1.29225   1.00
C3       1.03540    1.00092    1.20816   1.00
C3a      0.99292    0.96511    1.29263   1.00
C2       1.00148    0.99971    1.14483   1.00
C2       0.99865    1.00059    1.35517   1.00
C3       0.96598    0.99922    1.16566   1.00
C3       1.00606    1.03474    1.33359   1.00
C3       1.03614    1.00057    1.16680   1.00
C3       0.99220    0.96602    1.33415   1.00
H1       0.93727    0.99902    1.22192   1.00
H1       1.01235    1.06152    1.27685   1.00
H1       0.93875    0.99863    1.14968   1.00
H1       1.01125    1.06186    1.34895   1.00
H1       1.06394    1.00069    1.15179   1.00
H1       0.98689    0.93947    1.35043   1.00
C5       0.98676    0.92632    1.27239   1.00
H1       1.06273    1.00081    1.22401   1.00
H2       0.97776    0.90344    1.29354   1.00
H2       0.96253    0.92911    1.25103   1.00
N1       1.02258    0.91359    1.25292   1.00
C6       1.05728    0.90697    1.27012   1.00
C6       1.02673    0.90598    1.21460   1.00
C6       1.08405    0.89535    1.24243   1.00
C6       1.06462    0.89474    1.20711   1.00
H3       1.06298    0.91060    1.30099   1.00
H3       1.00376    0.90888    1.19309   1.00
H3       1.11435    0.88810    1.24741   1.00
H3       1.07673    0.88700    1.17903   1.00
C4       1.00007    1.22915    0.99993   1.00
C4       0.99993    1.27085    1.00007   1.00
C3       0.99941    1.20708    0.96515   1.00
C3       1.03448    1.29225    1.00679   1.00
C3       1.00092    1.20816    1.03540   1.00
C3a      0.96511    1.29263    0.99292   1.00
C2       0.99971    1.14483    1.00148   1.00
C2       1.00059    1.35517    0.99865   1.00
C3       0.99922    1.16566    0.96598   1.00
C3       1.03474    1.33359    1.00606   1.00
C3       1.00057    1.16680    1.03614   1.00
C3       0.96602    1.33415    0.99220   1.00
H1       0.99902    1.22192    0.93727   1.00
H1       1.06152    1.27685    1.01235   1.00
H1       0.99863    1.14968    0.93875   1.00
H1       1.06186    1.34895    1.01125   1.00
H1       1.00069    1.15179    1.06394   1.00
H1       0.93947    1.35043    0.98689   1.00
C5       0.92632    1.27239    0.98676   1.00
H1       1.00081    1.22401    1.06273   1.00
H2       0.90344    1.29354    0.97776   1.00
H2       0.92911    1.25103    0.96253   1.00
N1       0.91359    1.25292    1.02258   1.00
C6       0.90697    1.27012    1.05728   1.00
C6       0.90598    1.21460    1.02673   1.00
C6       0.89535    1.24243    1.08405   1.00
C6       0.89474    1.20711    1.06462   1.00
H3       0.91060    1.30099    1.06298   1.00
H3       0.90888    1.19309    1.00376   1.00
H3       0.88810    1.24741    1.11435   1.00
H3       0.88700    1.17903    1.07673   1.00
C4       0.77085    0.99993    0.99993   1.00
C4       0.72915    1.00007    1.00007   1.00
C3       0.79292    0.96515    1.00059   1.00
C3       0.70775    1.00679    0.96552   1.00
C3       0.79184    1.03540    0.99908   1.00
C3a      0.70737    0.99292    1.03489   1.00
C2       0.85517    1.00148    1.00029   1.00
C2       0.64483    0.99865    0.99941   1.00
C3       0.83434    0.96598    1.00078   1.00
C3       0.66641    1.00606    0.96526   1.00
C3       0.83320    1.03614    0.99943   1.00
C3       0.66585    0.99220    1.03398   1.00
H1       0.77808    0.93727    1.00098   1.00
H1       0.72315    1.01235    0.93848   1.00
H1       0.85032    0.93875    1.00137   1.00
H1       0.65105    1.01125    0.93814   1.00
H1       0.84821    1.06394    0.99931   1.00
H1       0.64957    0.98689    1.06053   1.00
C5       0.72761    0.98676    1.07368   1.00
H1       0.77599    1.06273    0.99919   1.00
H2       0.70646    0.97776    1.09656   1.00
H2       0.74897    0.96253    1.07089   1.00
N1       0.74708    1.02258    1.08641   1.00
C6       0.72988    1.05728    1.09303   1.00
C6       0.78540    1.02673    1.09402   1.00
C6       0.75757    1.08405    1.10465   1.00
C6       0.79289    1.06462    1.10526   1.00
H3       0.69901    1.06298    1.08940   1.00
H3       0.80691    1.00376    1.09112   1.00
H3       0.75259    1.11435    1.11190   1.00
H3       0.82097    1.07673    1.11300   1.00
C4       1.22915    0.99993    1.00007   1.00
C4       1.27085    1.00007    0.99993   1.00
C3       1.20708    0.96515    0.99941   1.00
C3       1.29225    1.00679    1.03448   1.00
C3       1.20816    1.03540    1.00092   1.00
C3a      1.29263    0.99292    0.96511   1.00
C2       1.14483    1.00148    0.99971   1.00
C2       1.35517    0.99865    1.00059   1.00
C3       1.16566    0.96598    0.99922   1.00
C3       1.33359    1.00606    1.03474   1.00
C3       1.16680    1.03614    1.00057   1.00
C3       1.33415    0.99220    0.96602   1.00
H1       1.22192    0.93727    0.99902   1.00
H1       1.27685    1.01235    1.06152   1.00
H1       1.14968    0.93875    0.99863   1.00
H1       1.34895    1.01125    1.06186   1.00
H1       1.15179    1.06394    1.00069   1.00
H1       1.35043    0.98689    0.93947   1.00
C5       1.27239    0.98676    0.92632   1.00
H1       1.22401    1.06273    1.00081   1.00
H2       1.29354    0.97776    0.90344   1.00
H2       1.25103    0.96253    0.92911   1.00
N1       1.25292    1.02258    0.91359   1.00
C6       1.27012    1.05728    0.90697   1.00
C6       1.21460    1.02673    0.90598   1.00
C6       1.24243    1.08405    0.89535   1.00
C6       1.20711    1.06462    0.89474   1.00
H3       1.30099    1.06298    0.91060   1.00
H3       1.19309    1.00376    0.90888   1.00
H3       1.24741    1.11435    0.88810   1.00
H3       1.17903    1.07673    0.88700   1.00
C4       0.99993    0.77085    0.99993   1.00
C4       1.00007    0.72915    1.00007   1.00
C3       1.00059    0.79292    0.96515   1.00
C3       0.96552    0.70775    1.00679   1.00
C3       0.99908    0.79184    1.03540   1.00
C3a      1.03489    0.70737    0.99292   1.00
C2       1.00029    0.85517    1.00148   1.00
C2       0.99941    0.64483    0.99865   1.00
C3       1.00078    0.83434    0.96598   1.00
C3       0.96526    0.66641    1.00606   1.00
C3       0.99943    0.83320    1.03614   1.00
C3       1.03398    0.66585    0.99220   1.00
H1       1.00098    0.77808    0.93727   1.00
H1       0.93848    0.72315    1.01235   1.00
H1       1.00137    0.85032    0.93875   1.00
H1       0.93814    0.65105    1.01125   1.00
H1       0.99931    0.84821    1.06394   1.00
H1       1.06053    0.64957    0.98689   1.00
C5       1.07368    0.72761    0.98676   1.00
H1       0.99919    0.77599    1.06273   1.00
H2       1.09656    0.70646    0.97776   1.00
H2       1.07089    0.74897    0.96253   1.00
N1       1.08641    0.74708    1.02258   1.00
C6       1.09303    0.72988    1.05728   1.00
C6       1.09402    0.78540    1.02673   1.00
C6       1.10465    0.75757    1.08405   1.00
C6       1.10526    0.79289    1.06462   1.00
H3       1.08940    0.69901    1.06298   1.00
H3       1.09112    0.80691    1.00376   1.00
H3       1.11190    0.75259    1.11435   1.00
H3       1.11300    0.82097    1.07673   1.00
C4       0.99993    0.99993    0.77085   1.00
C4       1.00007    1.00007    0.72915   1.00
C3       0.96515    1.00059    0.79292   1.00
C3       1.00679    0.96552    0.70775   1.00
C3       1.03540    0.99908    0.79184   1.00
C3a      0.99292    1.03489    0.70737   1.00
C2       1.00148    1.00029    0.85517   1.00
C2       0.99865    0.99941    0.64483   1.00
C3       0.96598    1.00078    0.83434   1.00
C3       1.00606    0.96526    0.66641   1.00
C3       1.03614    0.99943    0.83320   1.00
C3       0.99220    1.03398    0.66585   1.00
H1       0.93727    1.00098    0.77808   1.00
H1       1.01235    0.93848    0.72315   1.00
H1       0.93875    1.00137    0.85032   1.00
H1       1.01125    0.93814    0.65105   1.00
H1       1.06394    0.99931    0.84821   1.00
H1       0.98689    1.06053    0.64957   1.00
C5       0.98676    1.07368    0.72761   1.00
H1       1.06273    0.99919    0.77599   1.00
H2       0.97776    1.09656    0.70646   1.00
H2       0.96253    1.07089    0.74897   1.00
N1       1.02258    1.08641    0.74708   1.00
C6       1.05728    1.09303    0.72988   1.00
C6       1.02673    1.09402    0.78540   1.00
C6       1.08405    1.10465    0.75757   1.00
C6       1.06462    1.10526    0.79289   1.00
H3       1.06298    1.08940    0.69901   1.00
H3       1.00376    1.09112    0.80691   1.00
H3       1.11435    1.11190    0.75259   1.00
H3       1.07673    1.11300    0.82097   1.00
C4       0.49993    0.50007    1.22915   1.00
C4       0.50007    0.49993    1.27085   1.00
C3       0.46515    0.49941    1.20708   1.00
C3       0.50679    0.53448    1.29225   1.00
C3       0.53540    0.50092    1.20816   1.00
C3a      0.49292    0.46511    1.29263   1.00
C2       0.50148    0.49971    1.14483   1.00
C2       0.49865    0.50059    1.35517   1.00
C3       0.46598    0.49922    1.16566   1.00
C3       0.50606    0.53474    1.33359   1.00
C3       0.53614    0.50057    1.16680   1.00
C3       0.49220    0.46602    1.33415   1.00
H1       0.43727    0.49902    1.22192   1.00
H1       0.51235    0.56152    1.27685   1.00
H1       0.43875    0.49863    1.14968   1.00
H1       0.51125    0.56186    1.34895   1.00
H1       0.56394    0.50069    1.15179   1.00
H1       0.48689    0.43947    1.35043   1.00
C5       0.48676    0.42632    1.27239   1.00
H1       0.56273    0.50081    1.22401   1.00
H2       0.47776    0.40344    1.29354   1.00
H2       0.46253    0.42911    1.25103   1.00
N1       0.52258    0.41359    1.25292   1.00
C6       0.55728    0.40697    1.27012   1.00
C6       0.52673    0.40598    1.21460   1.00
C6       0.58405    0.39535    1.24243   1.00
C6       0.56462    0.39474    1.20711   1.00
H3       0.56298    0.41060    1.30099   1.00
H3       0.50376    0.40888    1.19309   1.00
H3       0.61435    0.38810    1.24741   1.00
H3       0.57673    0.38700    1.17903   1.00
C4       0.50007    0.72915    0.99993   1.00
C4       0.49993    0.77085    1.00007   1.00
C3       0.49941    0.70708    0.96515   1.00
C3       0.53448    0.79225    1.00679   1.00
C3       0.50092    0.70816    1.03540   1.00
C3a      0.46511    0.79263    0.99292   1.00
C2       0.49971    0.64483    1.00148   1.00
C2       0.50059    0.85517    0.99865   1.00
C3       0.49922    0.66566    0.96598   1.00
C3       0.53474    0.83359    1.00606   1.00
C3       0.50057    0.66680    1.03614   1.00
C3       0.46602    0.83415    0.99220   1.00
H1       0.49902    0.72192    0.93727   1.00
H1       0.56152    0.77685    1.01235   1.00
H1       0.49863    0.64968    0.93875   1.00
H1       0.56186    0.84895    1.01125   1.00
H1       0.50069    0.65179    1.06394   1.00
H1       0.43947    0.85043    0.98689   1.00
C5       0.42632    0.77239    0.98676   1.00
H1       0.50081    0.72401    1.06273   1.00
H2       0.40344    0.79354    0.97776   1.00
H2       0.42911    0.75103    0.96253   1.00
N1       0.41359    0.75292    1.02258   1.00
C6       0.40697    0.77012    1.05728   1.00
C6       0.40598    0.71460    1.02673   1.00
C6       0.39535    0.74243    1.08405   1.00
C6       0.39474    0.70711    1.06462   1.00
H3       0.41060    0.80099    1.06298   1.00
H3       0.40888    0.69309    1.00376   1.00
H3       0.38810    0.74741    1.11435   1.00
H3       0.38700    0.67903    1.07673   1.00
C4       0.27085    0.49993    0.99993   1.00
C4       0.22915    0.50007    1.00007   1.00
C3       0.29292    0.46515    1.00059   1.00
C3       0.20775    0.50679    0.96552   1.00
C3       0.29184    0.53540    0.99908   1.00
C3a      0.20737    0.49292    1.03489   1.00
C2       0.35517    0.50148    1.00029   1.00
C2       0.14483    0.49865    0.99941   1.00
C3       0.33434    0.46598    1.00078   1.00
C3       0.16641    0.50606    0.96526   1.00
C3       0.33320    0.53614    0.99943   1.00
C3       0.16585    0.49220    1.03398   1.00
H1       0.27808    0.43727    1.00098   1.00
H1       0.22315    0.51235    0.93848   1.00
H1       0.35032    0.43875    1.00137   1.00
H1       0.15105    0.51125    0.93814   1.00
H1       0.34821    0.56394    0.99931   1.00
H1       0.14957    0.48689    1.06053   1.00
C5       0.22761    0.48676    1.07368   1.00
H1       0.27599    0.56273    0.99919   1.00
H2       0.20646    0.47776    1.09656   1.00
H2       0.24897    0.46253    1.07089   1.00
N1       0.24708    0.52258    1.08641   1.00
C6       0.22988    0.55728    1.09303   1.00
C6       0.28540    0.52673    1.09402   1.00
C6       0.25757    0.58405    1.10465   1.00
C6       0.29289    0.56462    1.10526   1.00
H3       0.19901    0.56298    1.08940   1.00
H3       0.30691    0.50376    1.09112   1.00
H3       0.25259    0.61435    1.11190   1.00
H3       0.32097    0.57673    1.11300   1.00
C4       0.72915    0.49993    1.00007   1.00
C4       0.77085    0.50007    0.99993   1.00
C3       0.70708    0.46515    0.99941   1.00
C3       0.79225    0.50679    1.03448   1.00
C3       0.70816    0.53540    1.00092   1.00
C3a      0.79263    0.49292    0.96511   1.00
C2       0.64483    0.50148    0.99971   1.00
C2       0.85517    0.49865    1.00059   1.00
C3       0.66566    0.46598    0.99922   1.00
C3       0.83359    0.50606    1.03474   1.00
C3       0.66680    0.53614    1.00057   1.00
C3       0.83415    0.49220    0.96602   1.00
H1       0.72192    0.43727    0.99902   1.00
H1       0.77685    0.51235    1.06152   1.00
H1       0.64968    0.43875    0.99863   1.00
H1       0.84895    0.51125    1.06186   1.00
H1       0.65179    0.56394    1.00069   1.00
H1       0.85043    0.48689    0.93947   1.00
C5       0.77239    0.48676    0.92632   1.00
H1       0.72401    0.56273    1.00081   1.00
H2       0.79354    0.47776    0.90344   1.00
H2       0.75103    0.46253    0.92911   1.00
N1       0.75292    0.52258    0.91359   1.00
C6       0.77012    0.55728    0.90697   1.00
C6       0.71460    0.52673    0.90598   1.00
C6       0.74243    0.58405    0.89535   1.00
C6       0.70711    0.56462    0.89474   1.00
H3       0.80099    0.56298    0.91060   1.00
H3       0.69309    0.50376    0.90888   1.00
H3       0.74741    0.61435    0.88810   1.00
H3       0.67903    0.57673    0.88700   1.00
C4       0.49993    0.27085    0.99993   1.00
C4       0.50007    0.22915    1.00007   1.00
C3       0.50059    0.29292    0.96515   1.00
C3       0.46552    0.20775    1.00679   1.00
C3       0.49908    0.29184    1.03540   1.00
C3a      0.53489    0.20737    0.99292   1.00
C2       0.50029    0.35517    1.00148   1.00
C2       0.49941    0.14483    0.99865   1.00
C3       0.50078    0.33434    0.96598   1.00
C3       0.46526    0.16641    1.00606   1.00
C3       0.49943    0.33320    1.03614   1.00
C3       0.53398    0.16585    0.99220   1.00
H1       0.50098    0.27808    0.93727   1.00
H1       0.43848    0.22315    1.01235   1.00
H1       0.50137    0.35032    0.93875   1.00
H1       0.43814    0.15105    1.01125   1.00
H1       0.49931    0.34821    1.06394   1.00
H1       0.56053    0.14957    0.98689   1.00
C5       0.57368    0.22761    0.98676   1.00
H1       0.49919    0.27599    1.06273   1.00
H2       0.59656    0.20646    0.97776   1.00
H2       0.57089    0.24897    0.96253   1.00
N1       0.58641    0.24708    1.02258   1.00
C6       0.59303    0.22988    1.05728   1.00
C6       0.59402    0.28540    1.02673   1.00
C6       0.60465    0.25757    1.08405   1.00
C6       0.60526    0.29289    1.06462   1.00
H3       0.58940    0.19901    1.06298   1.00
H3       0.59112    0.30691    1.00376   1.00
H3       0.61190    0.25259    1.11435   1.00
H3       0.61300    0.32097    1.07673   1.00
C4       0.49993    0.49993    0.77085   1.00
C4       0.50007    0.50007    0.72915   1.00
C3       0.46515    0.50059    0.79292   1.00
C3       0.50679    0.46552    0.70775   1.00
C3       0.53540    0.49908    0.79184   1.00
C3a      0.49292    0.53489    0.70737   1.00
C2       0.50148    0.50029    0.85517   1.00
C2       0.49865    0.49941    0.64483   1.00
C3       0.46598    0.50078    0.83434   1.00
C3       0.50606    0.46526    0.66641   1.00
C3       0.53614    0.49943    0.83320   1.00
C3       0.49220    0.53398    0.66585   1.00
H1       0.43727    0.50098    0.77808   1.00
H1       0.51235    0.43848    0.72315   1.00
H1       0.43875    0.50137    0.85032   1.00
H1       0.51125    0.43814    0.65105   1.00
H1       0.56394    0.49931    0.84821   1.00
H1       0.48689    0.56053    0.64957   1.00
C5       0.48676    0.57368    0.72761   1.00
H1       0.56273    0.49919    0.77599   1.00
H2       0.47776    0.59656    0.70646   1.00
H2       0.46253    0.57089    0.74897   1.00
N1       0.52258    0.58641    0.74708   1.00
C6       0.55728    0.59303    0.72988   1.00
C6       0.52673    0.59402    0.78540   1.00
C6       0.58405    0.60465    0.75757   1.00
C6       0.56462    0.60526    0.79289   1.00
H3       0.56298    0.58940    0.69901   1.00
H3       0.50376    0.59112    0.80691   1.00
H3       0.61435    0.61190    0.75259   1.00
H3       0.57673    0.61300    0.82097   1.00
C4       0.49993    1.00007    0.72915   1.00
C4       0.50007    0.99993    0.77085   1.00
C3       0.46515    0.99941    0.70708   1.00
C3       0.50679    1.03448    0.79225   1.00
C3       0.53540    1.00092    0.70816   1.00
C3a      0.49292    0.96511    0.79263   1.00
C2       0.50148    0.99971    0.64483   1.00
C2       0.49865    1.00059    0.85517   1.00
C3       0.46598    0.99922    0.66566   1.00
C3       0.50606    1.03474    0.83359   1.00
C3       0.53614    1.00057    0.66680   1.00
C3       0.49220    0.96602    0.83415   1.00
H1       0.43727    0.99902    0.72192   1.00
H1       0.51235    1.06152    0.77685   1.00
H1       0.43875    0.99863    0.64968   1.00
H1       0.51125    1.06186    0.84895   1.00
H1       0.56394    1.00069    0.65179   1.00
H1       0.48689    0.93947    0.85043   1.00
C5       0.48676    0.92632    0.77239   1.00
H1       0.56273    1.00081    0.72401   1.00
H2       0.47776    0.90344    0.79354   1.00
H2       0.46253    0.92911    0.75103   1.00
N1       0.52258    0.91359    0.75292   1.00
C6       0.55728    0.90697    0.77012   1.00
C6       0.52673    0.90598    0.71460   1.00
C6       0.58405    0.89535    0.74243   1.00
C6       0.56462    0.89474    0.70711   1.00
H3       0.56298    0.91060    0.80099   1.00
H3       0.50376    0.90888    0.69309   1.00
H3       0.61435    0.88810    0.74741   1.00
H3       0.57673    0.88700    0.67903   1.00
C4       0.50007    1.22915    0.49993   1.00
C4       0.49993    1.27085    0.50007   1.00
C3       0.49941    1.20708    0.46515   1.00
C3       0.53448    1.29225    0.50679   1.00
C3       0.50092    1.20816    0.53540   1.00
C3a      0.46511    1.29263    0.49292   1.00
C2       0.49971    1.14483    0.50148   1.00
C2       0.50059    1.35517    0.49865   1.00
C3       0.49922    1.16566    0.46598   1.00
C3       0.53474    1.33359    0.50606   1.00
C3       0.50057    1.16680    0.53614   1.00
C3       0.46602    1.33415    0.49220   1.00
H1       0.49902    1.22192    0.43727   1.00
H1       0.56152    1.27685    0.51235   1.00
H1       0.49863    1.14968    0.43875   1.00
H1       0.56186    1.34895    0.51125   1.00
H1       0.50069    1.15179    0.56394   1.00
H1       0.43947    1.35043    0.48689   1.00
C5       0.42632    1.27239    0.48676   1.00
H1       0.50081    1.22401    0.56273   1.00
H2       0.40344    1.29354    0.47776   1.00
H2       0.42911    1.25103    0.46253   1.00
N1       0.41359    1.25292    0.52258   1.00
C6       0.40697    1.27012    0.55728   1.00
C6       0.40598    1.21460    0.52673   1.00
C6       0.39535    1.24243    0.58405   1.00
C6       0.39474    1.20711    0.56462   1.00
H3       0.41060    1.30099    0.56298   1.00
H3       0.40888    1.19309    0.50376   1.00
H3       0.38810    1.24741    0.61435   1.00
H3       0.38700    1.17903    0.57673   1.00
C4       0.27085    0.99993    0.49993   1.00
C4       0.22915    1.00007    0.50007   1.00
C3       0.29292    0.96515    0.50059   1.00
C3       0.20775    1.00679    0.46552   1.00
C3       0.29184    1.03540    0.49908   1.00
C3a      0.20737    0.99292    0.53489   1.00
C2       0.35517    1.00148    0.50029   1.00
C2       0.14483    0.99865    0.49941   1.00
C3       0.33434    0.96598    0.50078   1.00
C3       0.16641    1.00606    0.46526   1.00
C3       0.33320    1.03614    0.49943   1.00
C3       0.16585    0.99220    0.53398   1.00
H1       0.27808    0.93727    0.50098   1.00
H1       0.22315    1.01235    0.43848   1.00
H1       0.35032    0.93875    0.50137   1.00
H1       0.15105    1.01125    0.43814   1.00
H1       0.34821    1.06394    0.49931   1.00
H1       0.14957    0.98689    0.56053   1.00
C5       0.22761    0.98676    0.57368   1.00
H1       0.27599    1.06273    0.49919   1.00
H2       0.20646    0.97776    0.59656   1.00
H2       0.24897    0.96253    0.57089   1.00
N1       0.24708    1.02258    0.58641   1.00
C6       0.22988    1.05728    0.59303   1.00
C6       0.28540    1.02673    0.59402   1.00
C6       0.25757    1.08405    0.60465   1.00
C6       0.29289    1.06462    0.60526   1.00
H3       0.19901    1.06298    0.58940   1.00
H3       0.30691    1.00376    0.59112   1.00
H3       0.25259    1.11435    0.61190   1.00
H3       0.32097    1.07673    0.61300   1.00
C4       0.72915    0.99993    0.50007   1.00
C4       0.77085    1.00007    0.49993   1.00
C3       0.70708    0.96515    0.49941   1.00
C3       0.79225    1.00679    0.53448   1.00
C3       0.70816    1.03540    0.50092   1.00
C3a      0.79263    0.99292    0.46511   1.00
C2       0.64483    1.00148    0.49971   1.00
C2       0.85517    0.99865    0.50059   1.00
C3       0.66566    0.96598    0.49922   1.00
C3       0.83359    1.00606    0.53474   1.00
C3       0.66680    1.03614    0.50057   1.00
C3       0.83415    0.99220    0.46602   1.00
H1       0.72192    0.93727    0.49902   1.00
H1       0.77685    1.01235    0.56152   1.00
H1       0.64968    0.93875    0.49863   1.00
H1       0.84895    1.01125    0.56186   1.00
H1       0.65179    1.06394    0.50069   1.00
H1       0.85043    0.98689    0.43947   1.00
C5       0.77239    0.98676    0.42632   1.00
H1       0.72401    1.06273    0.50081   1.00
H2       0.79354    0.97776    0.40344   1.00
H2       0.75103    0.96253    0.42911   1.00
N1       0.75292    1.02258    0.41359   1.00
C6       0.77012    1.05728    0.40697   1.00
C6       0.71460    1.02673    0.40598   1.00
C6       0.74243    1.08405    0.39535   1.00
C6       0.70711    1.06462    0.39474   1.00
H3       0.80099    1.06298    0.41060   1.00
H3       0.69309    1.00376    0.40888   1.00
H3       0.74741    1.11435    0.38810   1.00
H3       0.67903    1.07673    0.38700   1.00
C4       0.49993    0.77085    0.49993   1.00
C4       0.50007    0.72915    0.50007   1.00
C3       0.50059    0.79292    0.46515   1.00
C3       0.46552    0.70775    0.50679   1.00
C3       0.49908    0.79184    0.53540   1.00
C3a      0.53489    0.70737    0.49292   1.00
C2       0.50029    0.85517    0.50148   1.00
C2       0.49941    0.64483    0.49865   1.00
C3       0.50078    0.83434    0.46598   1.00
C3       0.46526    0.66641    0.50606   1.00
C3       0.49943    0.83320    0.53614   1.00
C3       0.53398    0.66585    0.49220   1.00
H1       0.50098    0.77808    0.43727   1.00
H1       0.43848    0.72315    0.51235   1.00
H1       0.50137    0.85032    0.43875   1.00
H1       0.43814    0.65105    0.51125   1.00
H1       0.49931    0.84821    0.56394   1.00
H1       0.56053    0.64957    0.48689   1.00
C5       0.57368    0.72761    0.48676   1.00
H1       0.49919    0.77599    0.56273   1.00
H2       0.59656    0.70646    0.47776   1.00
H2       0.57089    0.74897    0.46253   1.00
N1       0.58641    0.74708    0.52258   1.00
C6       0.59303    0.72988    0.55728   1.00
C6       0.59402    0.78540    0.52673   1.00
C6       0.60465    0.75757    0.58405   1.00
C6       0.60526    0.79289    0.56462   1.00
H3       0.58940    0.69901    0.56298   1.00
H3       0.59112    0.80691    0.50376   1.00
H3       0.61190    0.75259    0.61435   1.00
H3       0.61300    0.82097    0.57673   1.00
C4       0.49993    0.99993    0.27085   1.00
C4       0.50007    1.00007    0.22915   1.00
C3       0.46515    1.00059    0.29292   1.00
C3       0.50679    0.96552    0.20775   1.00
C3       0.53540    0.99908    0.29184   1.00
C3a      0.49292    1.03489    0.20737   1.00
C2       0.50148    1.00029    0.35517   1.00
C2       0.49865    0.99941    0.14483   1.00
C3       0.46598    1.00078    0.33434   1.00
C3       0.50606    0.96526    0.16641   1.00
C3       0.53614    0.99943    0.33320   1.00
C3       0.49220    1.03398    0.16585   1.00
H1       0.43727    1.00098    0.27808   1.00
H1       0.51235    0.93848    0.22315   1.00
H1       0.43875    1.00137    0.35032   1.00
H1       0.51125    0.93814    0.15105   1.00
H1       0.56394    0.99931    0.34821   1.00
H1       0.48689    1.06053    0.14957   1.00
C5       0.48676    1.07368    0.22761   1.00
H1       0.56273    0.99919    0.27599   1.00
H2       0.47776    1.09656    0.20646   1.00
H2       0.46253    1.07089    0.24897   1.00
N1       0.52258    1.08641    0.24708   1.00
C6       0.55728    1.09303    0.22988   1.00
C6       0.52673    1.09402    0.28540   1.00
C6       0.58405    1.10465    0.25757   1.00
C6       0.56462    1.10526    0.29289   1.00
H3       0.56298    1.08940    0.19901   1.00
H3       0.50376    1.09112    0.30691   1.00
H3       0.61435    1.11190    0.25259   1.00
H3       0.57673    1.11300    0.32097   1.00
C4       0.99993    0.50007    0.72915   1.00
C4       1.00007    0.49993    0.77085   1.00
C3       0.96515    0.49941    0.70708   1.00
C3       1.00679    0.53448    0.79225   1.00
C3       1.03540    0.50092    0.70816   1.00
C3a      0.99292    0.46511    0.79263   1.00
C2       1.00148    0.49971    0.64483   1.00
C2       0.99865    0.50059    0.85517   1.00
C3       0.96598    0.49922    0.66566   1.00
C3       1.00606    0.53474    0.83359   1.00
C3       1.03614    0.50057    0.66680   1.00
C3       0.99220    0.46602    0.83415   1.00
H1       0.93727    0.49902    0.72192   1.00
H1       1.01235    0.56152    0.77685   1.00
H1       0.93875    0.49863    0.64968   1.00
H1       1.01125    0.56186    0.84895   1.00
H1       1.06394    0.50069    0.65179   1.00
H1       0.98689    0.43947    0.85043   1.00
C5       0.98676    0.42632    0.77239   1.00
H1       1.06273    0.50081    0.72401   1.00
H2       0.97776    0.40344    0.79354   1.00
H2       0.96253    0.42911    0.75103   1.00
N1       1.02258    0.41359    0.75292   1.00
C6       1.05728    0.40697    0.77012   1.00
C6       1.02673    0.40598    0.71460   1.00
C6       1.08405    0.39535    0.74243   1.00
C6       1.06462    0.39474    0.70711   1.00
H3       1.06298    0.41060    0.80099   1.00
H3       1.00376    0.40888    0.69309   1.00
H3       1.11435    0.38810    0.74741   1.00
H3       1.07673    0.38700    0.67903   1.00
C4       1.00007    0.72915    0.49993   1.00
C4       0.99993    0.77085    0.50007   1.00
C3       0.99941    0.70708    0.46515   1.00
C3       1.03448    0.79225    0.50679   1.00
C3       1.00092    0.70816    0.53540   1.00
C3a      0.96511    0.79263    0.49292   1.00
C2       0.99971    0.64483    0.50148   1.00
C2       1.00059    0.85517    0.49865   1.00
C3       0.99922    0.66566    0.46598   1.00
C3       1.03474    0.83359    0.50606   1.00
C3       1.00057    0.66680    0.53614   1.00
C3       0.96602    0.83415    0.49220   1.00
H1       0.99902    0.72192    0.43727   1.00
H1       1.06152    0.77685    0.51235   1.00
H1       0.99863    0.64968    0.43875   1.00
H1       1.06186    0.84895    0.51125   1.00
H1       1.00069    0.65179    0.56394   1.00
H1       0.93947    0.85043    0.48689   1.00
C5       0.92632    0.77239    0.48676   1.00
H1       1.00081    0.72401    0.56273   1.00
H2       0.90344    0.79354    0.47776   1.00
H2       0.92911    0.75103    0.46253   1.00
N1       0.91359    0.75292    0.52258   1.00
C6       0.90697    0.77012    0.55728   1.00
C6       0.90598    0.71460    0.52673   1.00
C6       0.89535    0.74243    0.58405   1.00
C6       0.89474    0.70711    0.56462   1.00
H3       0.91060    0.80099    0.56298   1.00
H3       0.90888    0.69309    0.50376   1.00
H3       0.88810    0.74741    0.61435   1.00
H3       0.88700    0.67903    0.57673   1.00
C4       0.77085    0.49993    0.49993   1.00
C4       0.72915    0.50007    0.50007   1.00
C3       0.79292    0.46515    0.50059   1.00
C3       0.70775    0.50679    0.46552   1.00
C3       0.79184    0.53540    0.49908   1.00
C3a      0.70737    0.49292    0.53489   1.00
C2       0.85517    0.50148    0.50029   1.00
C2       0.64483    0.49865    0.49941   1.00
C3       0.83434    0.46598    0.50078   1.00
C3       0.66641    0.50606    0.46526   1.00
C3       0.83320    0.53614    0.49943   1.00
C3       0.66585    0.49220    0.53398   1.00
H1       0.77808    0.43727    0.50098   1.00
H1       0.72315    0.51235    0.43848   1.00
H1       0.85032    0.43875    0.50137   1.00
H1       0.65105    0.51125    0.43814   1.00
H1       0.84821    0.56394    0.49931   1.00
H1       0.64957    0.48689    0.56053   1.00
C5       0.72761    0.48676    0.57368   1.00
H1       0.77599    0.56273    0.49919   1.00
H2       0.70646    0.47776    0.59656   1.00
H2       0.74897    0.46253    0.57089   1.00
N1       0.74708    0.52258    0.58641   1.00
C6       0.72988    0.55728    0.59303   1.00
C6       0.78540    0.52673    0.59402   1.00
C6       0.75757    0.58405    0.60465   1.00
C6       0.79289    0.56462    0.60526   1.00
H3       0.69901    0.56298    0.58940   1.00
H3       0.80691    0.50376    0.59112   1.00
H3       0.75259    0.61435    0.61190   1.00
H3       0.82097    0.57673    0.61300   1.00
C4       1.22915    0.49993    0.50007   1.00
C4       1.27085    0.50007    0.49993   1.00
C3       1.20708    0.46515    0.49941   1.00
C3       1.29225    0.50679    0.53448   1.00
C3       1.20816    0.53540    0.50092   1.00
C3a      1.29263    0.49292    0.46511   1.00
C2       1.14483    0.50148    0.49971   1.00
C2       1.35517    0.49865    0.50059   1.00
C3       1.16566    0.46598    0.49922   1.00
C3       1.33359    0.50606    0.53474   1.00
C3       1.16680    0.53614    0.50057   1.00
C3       1.33415    0.49220    0.46602   1.00
H1       1.22192    0.43727    0.49902   1.00
H1       1.27685    0.51235    0.56152   1.00
H1       1.14968    0.43875    0.49863   1.00
H1       1.34895    0.51125    0.56186   1.00
H1       1.15179    0.56394    0.50069   1.00
H1       1.35043    0.48689    0.43947   1.00
C5       1.27239    0.48676    0.42632   1.00
H1       1.22401    0.56273    0.50081   1.00
H2       1.29354    0.47776    0.40344   1.00
H2       1.25103    0.46253    0.42911   1.00
N1       1.25292    0.52258    0.41359   1.00
C6       1.27012    0.55728    0.40697   1.00
C6       1.21460    0.52673    0.40598   1.00
C6       1.24243    0.58405    0.39535   1.00
C6       1.20711    0.56462    0.39474   1.00
H3       1.30099    0.56298    0.41060   1.00
H3       1.19309    0.50376    0.40888   1.00
H3       1.24741    0.61435    0.38810   1.00
H3       1.17903    0.57673    0.38700   1.00
C4       0.99993    0.27085    0.49993   1.00
C4       1.00007    0.22915    0.50007   1.00
C3       1.00059    0.29292    0.46515   1.00
C3       0.96552    0.20775    0.50679   1.00
C3       0.99908    0.29184    0.53540   1.00
C3a      1.03489    0.20737    0.49292   1.00
C2       1.00029    0.35517    0.50148   1.00
C2       0.99941    0.14483    0.49865   1.00
C3       1.00078    0.33434    0.46598   1.00
C3       0.96526    0.16641    0.50606   1.00
C3       0.99943    0.33320    0.53614   1.00
C3       1.03398    0.16585    0.49220   1.00
H1       1.00098    0.27808    0.43727   1.00
H1       0.93848    0.22315    0.51235   1.00
H1       1.00137    0.35032    0.43875   1.00
H1       0.93814    0.15105    0.51125   1.00
H1       0.99931    0.34821    0.56394   1.00
H1       1.06053    0.14957    0.48689   1.00
C5       1.07368    0.22761    0.48676   1.00
H1       0.99919    0.27599    0.56273   1.00
H2       1.09656    0.20646    0.47776   1.00
H2       1.07089    0.24897    0.46253   1.00
N1       1.08641    0.24708    0.52258   1.00
C6       1.09303    0.22988    0.55728   1.00
C6       1.09402    0.28540    0.52673   1.00
C6       1.10465    0.25757    0.58405   1.00
C6       1.10526    0.29289    0.56462   1.00
H3       1.08940    0.19901    0.56298   1.00
H3       1.09112    0.30691    0.50376   1.00
H3       1.11190    0.25259    0.61435   1.00
H3       1.11300    0.32097    0.57673   1.00
C4       0.99993    0.49993    0.27085   1.00
C4       1.00007    0.50007    0.22915   1.00
C3       0.96515    0.50059    0.29292   1.00
C3       1.00679    0.46552    0.20775   1.00
C3       1.03540    0.49908    0.29184   1.00
C3a      0.99292    0.53489    0.20737   1.00
C2       1.00148    0.50029    0.35517   1.00
C2       0.99865    0.49941    0.14483   1.00
C3       0.96598    0.50078    0.33434   1.00
C3       1.00606    0.46526    0.16641   1.00
C3       1.03614    0.49943    0.33320   1.00
C3       0.99220    0.53398    0.16585   1.00
H1       0.93727    0.50098    0.27808   1.00
H1       1.01235    0.43848    0.22315   1.00
H1       0.93875    0.50137    0.35032   1.00
H1       1.01125    0.43814    0.15105   1.00
H1       1.06394    0.49931    0.34821   1.00
H1       0.98689    0.56053    0.14957   1.00
C5       0.98676    0.57368    0.22761   1.00
H1       1.06273    0.49919    0.27599   1.00
H2       0.97776    0.59656    0.20646   1.00
H2       0.96253    0.57089    0.24897   1.00
N1       1.02258    0.58641    0.24708   1.00
C6       1.05728    0.59303    0.22988   1.00
C6       1.02673    0.59402    0.28540   1.00
C6       1.08405    0.60465    0.25757   1.00
C6       1.06462    0.60526    0.29289   1.00
H3       1.06298    0.58940    0.19901   1.00
H3       1.00376    0.59112    0.30691   1.00
H3       1.11435    0.61190    0.25259   1.00
H3       1.07673    0.61300    0.32097   1.00
