data_IRMOF10_SG202_interpen_Ligand2lp_label_d.

_audit_creation_method             'generated by an auxiliary program of Tobunporous'

_symmetry_space_group_name_H-M     'P 1'
_symmetry_Int_Tables_number        1
_symmetry_cell_setting             triclinic

_cell_length_a                    34.2800
_cell_length_b                    34.2800
_cell_length_c                    34.2800
_cell_angle_alpha                 90.0000
_cell_angle_beta                  90.0000
_cell_angle_gamma                 90.0000

loop_
_atom_site_label
_atom_site_fract_x
_atom_site_fract_y
_atom_site_fract_z
_atom_site_occupancy
O1       0.75000    0.75000    0.75000   1.00
Zn1      0.71720    0.78280    0.78280   1.00
Zn1      0.78280    0.71720    0.78280   1.00
Zn1      0.78280    0.78280    0.71720   1.00
Zn1      0.71720    0.71720    0.71720   1.00
O2       0.72650    0.77350    0.83820   1.00
O2       0.72650    0.83820    0.77350   1.00
O2       0.66180    0.77350    0.77350   1.00
O2       0.77350    0.72650    0.83820   1.00
O2       0.83820    0.72650    0.77350   1.00
O2       0.77350    0.66180    0.77350   1.00
O2       0.77350    0.83820    0.72650   1.00
O2       0.83820    0.77350    0.72650   1.00
O2       0.77350    0.77350    0.66180   1.00
O2       0.66180    0.72650    0.72650   1.00
O2       0.72650    0.66180    0.72650   1.00
O2       0.72650    0.72650    0.66180   1.00
C1       0.75000    0.75000    0.85520   1.00
C1       0.75000    0.85520    0.75000   1.00
C1       0.64480    0.75000    0.75000   1.00
C1       0.85520    0.75000    0.75000   1.00
C1       0.75000    0.64480    0.75000   1.00
C1       0.75000    0.75000    0.64480   1.00
O1       0.25000    0.25000    0.75000   1.00
Zn1      0.21720    0.28280    0.78280   1.00
Zn1      0.28280    0.21720    0.78280   1.00
Zn1      0.28280    0.28280    0.71720   1.00
Zn1      0.21720    0.21720    0.71720   1.00
O2       0.22650    0.27350    0.83820   1.00
O2       0.22650    0.33820    0.77350   1.00
O2       0.16180    0.27350    0.77350   1.00
O2       0.27350    0.22650    0.83820   1.00
O2       0.33820    0.22650    0.77350   1.00
O2       0.27350    0.16180    0.77350   1.00
O2       0.27350    0.33820    0.72650   1.00
O2       0.33820    0.27350    0.72650   1.00
O2       0.27350    0.27350    0.66180   1.00
O2       0.16180    0.22650    0.72650   1.00
O2       0.22650    0.16180    0.72650   1.00
O2       0.22650    0.22650    0.66180   1.00
C1       0.25000    0.25000    0.85520   1.00
C1       0.25000    0.35520    0.75000   1.00
C1       0.14480    0.25000    0.75000   1.00
C1       0.35520    0.25000    0.75000   1.00
C1       0.25000    0.14480    0.75000   1.00
C1       0.25000    0.25000    0.64480   1.00
O1       0.25000    0.75000    0.25000   1.00
Zn1      0.21720    0.78280    0.28280   1.00
Zn1      0.28280    0.71720    0.28280   1.00
Zn1      0.28280    0.78280    0.21720   1.00
Zn1      0.21720    0.71720    0.21720   1.00
O2       0.22650    0.77350    0.33820   1.00
O2       0.22650    0.83820    0.27350   1.00
O2       0.16180    0.77350    0.27350   1.00
O2       0.27350    0.72650    0.33820   1.00
O2       0.33820    0.72650    0.27350   1.00
O2       0.27350    0.66180    0.27350   1.00
O2       0.27350    0.83820    0.22650   1.00
O2       0.33820    0.77350    0.22650   1.00
O2       0.27350    0.77350    0.16180   1.00
O2       0.16180    0.72650    0.22650   1.00
O2       0.22650    0.66180    0.22650   1.00
O2       0.22650    0.72650    0.16180   1.00
C1       0.25000    0.75000    0.35520   1.00
C1       0.25000    0.85520    0.25000   1.00
C1       0.14480    0.75000    0.25000   1.00
C1       0.35520    0.75000    0.25000   1.00
C1       0.25000    0.64480    0.25000   1.00
C1       0.25000    0.75000    0.14480   1.00
O1       0.75000    0.25000    0.25000   1.00
Zn1      0.71720    0.28280    0.28280   1.00
Zn1      0.78280    0.21720    0.28280   1.00
Zn1      0.78280    0.28280    0.21720   1.00
Zn1      0.71720    0.21720    0.21720   1.00
O2       0.72650    0.27350    0.33820   1.00
O2       0.72650    0.33820    0.27350   1.00
O2       0.66180    0.27350    0.27350   1.00
O2       0.77350    0.22650    0.33820   1.00
O2       0.83820    0.22650    0.27350   1.00
O2       0.77350    0.16180    0.27350   1.00
O2       0.77350    0.33820    0.22650   1.00
O2       0.83820    0.27350    0.22650   1.00
O2       0.77350    0.27350    0.16180   1.00
O2       0.66180    0.22650    0.22650   1.00
O2       0.72650    0.16180    0.22650   1.00
O2       0.72650    0.22650    0.16180   1.00
C1       0.75000    0.25000    0.35520   1.00
C1       0.75000    0.35520    0.25000   1.00
C1       0.64480    0.25000    0.25000   1.00
C1       0.85520    0.25000    0.25000   1.00
C1       0.75000    0.14480    0.25000   1.00
C1       0.75000    0.25000    0.14480   1.00
O1       0.25000    0.25000    0.25000   1.00
Zn1      0.28280    0.21720    0.21720   1.00
Zn1      0.21720    0.28280    0.21720   1.00
Zn1      0.21720    0.21720    0.28280   1.00
Zn1      0.28280    0.28280    0.28280   1.00
O2       0.27350    0.22650    0.16180   1.00
O2       0.27350    0.16180    0.22650   1.00
O2       0.33820    0.22650    0.22650   1.00
O2       0.22650    0.27350    0.16180   1.00
O2       0.16180    0.27350    0.22650   1.00
O2       0.22650    0.33820    0.22650   1.00
O2       0.22650    0.16180    0.27350   1.00
O2       0.16180    0.22650    0.27350   1.00
O2       0.22650    0.22650    0.33820   1.00
O2       0.33820    0.27350    0.27350   1.00
O2       0.27350    0.33820    0.27350   1.00
O2       0.27350    0.27350    0.33820   1.00
C1       0.25000    0.25000    0.14480   1.00
C1       0.25000    0.14480    0.25000   1.00
C1       0.35520    0.25000    0.25000   1.00
C1       0.14480    0.25000    0.25000   1.00
C1       0.25000    0.35520    0.25000   1.00
C1       0.25000    0.25000    0.35520   1.00
O1       0.75000    0.75000    0.25000   1.00
Zn1      0.78280    0.71720    0.21720   1.00
Zn1      0.71720    0.78280    0.21720   1.00
Zn1      0.71720    0.71720    0.28280   1.00
Zn1      0.78280    0.78280    0.28280   1.00
O2       0.77350    0.72650    0.16180   1.00
O2       0.77350    0.66180    0.22650   1.00
O2       0.83820    0.72650    0.22650   1.00
O2       0.72650    0.77350    0.16180   1.00
O2       0.66180    0.77350    0.22650   1.00
O2       0.72650    0.83820    0.22650   1.00
O2       0.72650    0.66180    0.27350   1.00
O2       0.66180    0.72650    0.27350   1.00
O2       0.72650    0.72650    0.33820   1.00
O2       0.83820    0.77350    0.27350   1.00
O2       0.77350    0.83820    0.27350   1.00
O2       0.77350    0.77350    0.33820   1.00
C1       0.75000    0.75000    0.14480   1.00
C1       0.75000    0.64480    0.25000   1.00
C1       0.85520    0.75000    0.25000   1.00
C1       0.64480    0.75000    0.25000   1.00
C1       0.75000    0.85520    0.25000   1.00
C1       0.75000    0.75000    0.35520   1.00
O1       0.75000    0.25000    0.75000   1.00
Zn1      0.78280    0.21720    0.71720   1.00
Zn1      0.71720    0.28280    0.71720   1.00
Zn1      0.71720    0.21720    0.78280   1.00
Zn1      0.78280    0.28280    0.78280   1.00
O2       0.77350    0.22650    0.66180   1.00
O2       0.77350    0.16180    0.72650   1.00
O2       0.83820    0.22650    0.72650   1.00
O2       0.72650    0.27350    0.66180   1.00
O2       0.66180    0.27350    0.72650   1.00
O2       0.72650    0.33820    0.72650   1.00
O2       0.72650    0.16180    0.77350   1.00
O2       0.66180    0.22650    0.77350   1.00
O2       0.72650    0.22650    0.83820   1.00
O2       0.83820    0.27350    0.77350   1.00
O2       0.77350    0.33820    0.77350   1.00
O2       0.77350    0.27350    0.83820   1.00
C1       0.75000    0.25000    0.64480   1.00
C1       0.75000    0.14480    0.75000   1.00
C1       0.85520    0.25000    0.75000   1.00
C1       0.64480    0.25000    0.75000   1.00
C1       0.75000    0.35520    0.75000   1.00
C1       0.75000    0.25000    0.85520   1.00
O1       0.25000    0.75000    0.75000   1.00
Zn1      0.28280    0.71720    0.71720   1.00
Zn1      0.21720    0.78280    0.71720   1.00
Zn1      0.21720    0.71720    0.78280   1.00
Zn1      0.28280    0.78280    0.78280   1.00
O2       0.27350    0.72650    0.66180   1.00
O2       0.27350    0.66180    0.72650   1.00
O2       0.33820    0.72650    0.72650   1.00
O2       0.22650    0.77350    0.66180   1.00
O2       0.16180    0.77350    0.72650   1.00
O2       0.22650    0.83820    0.72650   1.00
O2       0.22650    0.66180    0.77350   1.00
O2       0.16180    0.72650    0.77350   1.00
O2       0.22650    0.72650    0.83820   1.00
O2       0.33820    0.77350    0.77350   1.00
O2       0.27350    0.83820    0.77350   1.00
O2       0.27350    0.77350    0.83820   1.00
C1       0.25000    0.75000    0.64480   1.00
C1       0.25000    0.64480    0.75000   1.00
C1       0.35520    0.75000    0.75000   1.00
C1       0.14480    0.75000    0.75000   1.00
C1       0.25000    0.85520    0.75000   1.00
C1       0.25000    0.75000    0.85520   1.00
O1       1.00000    1.00000    1.00000   1.00
Zn1      0.96720    1.03280    1.03280   1.00
Zn1      1.03280    0.96720    1.03280   1.00
Zn1      1.03280    1.03280    0.96720   1.00
Zn1      0.96720    0.96720    0.96720   1.00
O2       0.97650    1.02350    1.08820   1.00
O2       0.97650    1.08820    1.02350   1.00
O2       0.91180    1.02350    1.02350   1.00
O2       1.02350    0.97650    1.08820   1.00
O2       1.08820    0.97650    1.02350   1.00
O2       1.02350    0.91180    1.02350   1.00
O2       1.02350    1.08820    0.97650   1.00
O2       1.08820    1.02350    0.97650   1.00
O2       1.02350    1.02350    0.91180   1.00
O2       0.91180    0.97650    0.97650   1.00
O2       0.97650    0.91180    0.97650   1.00
O2       0.97650    0.97650    0.91180   1.00
C1       1.00000    1.00000    1.10520   1.00
C1       1.00000    1.10520    1.00000   1.00
C1       0.89480    1.00000    1.00000   1.00
C1       1.10520    1.00000    1.00000   1.00
C1       1.00000    0.89480    1.00000   1.00
C1       1.00000    1.00000    0.89480   1.00
O1       0.50000    0.50000    1.00000   1.00
Zn1      0.46720    0.53280    1.03280   1.00
Zn1      0.53280    0.46720    1.03280   1.00
Zn1      0.53280    0.53280    0.96720   1.00
Zn1      0.46720    0.46720    0.96720   1.00
O2       0.47650    0.52350    1.08820   1.00
O2       0.47650    0.58820    1.02350   1.00
O2       0.41180    0.52350    1.02350   1.00
O2       0.52350    0.47650    1.08820   1.00
O2       0.58820    0.47650    1.02350   1.00
O2       0.52350    0.41180    1.02350   1.00
O2       0.52350    0.58820    0.97650   1.00
O2       0.58820    0.52350    0.97650   1.00
O2       0.52350    0.52350    0.91180   1.00
O2       0.41180    0.47650    0.97650   1.00
O2       0.47650    0.41180    0.97650   1.00
O2       0.47650    0.47650    0.91180   1.00
C1       0.50000    0.50000    1.10520   1.00
C1       0.50000    0.60520    1.00000   1.00
C1       0.39480    0.50000    1.00000   1.00
C1       0.60520    0.50000    1.00000   1.00
C1       0.50000    0.39480    1.00000   1.00
C1       0.50000    0.50000    0.89480   1.00
O1       0.50000    1.00000    0.50000   1.00
Zn1      0.46720    1.03280    0.53280   1.00
Zn1      0.53280    0.96720    0.53280   1.00
Zn1      0.53280    1.03280    0.46720   1.00
Zn1      0.46720    0.96720    0.46720   1.00
O2       0.47650    1.02350    0.58820   1.00
O2       0.47650    1.08820    0.52350   1.00
O2       0.41180    1.02350    0.52350   1.00
O2       0.52350    0.97650    0.58820   1.00
O2       0.58820    0.97650    0.52350   1.00
O2       0.52350    0.91180    0.52350   1.00
O2       0.52350    1.08820    0.47650   1.00
O2       0.58820    1.02350    0.47650   1.00
O2       0.52350    1.02350    0.41180   1.00
O2       0.41180    0.97650    0.47650   1.00
O2       0.47650    0.91180    0.47650   1.00
O2       0.47650    0.97650    0.41180   1.00
C1       0.50000    1.00000    0.60520   1.00
C1       0.50000    1.10520    0.50000   1.00
C1       0.39480    1.00000    0.50000   1.00
C1       0.60520    1.00000    0.50000   1.00
C1       0.50000    0.89480    0.50000   1.00
C1       0.50000    1.00000    0.39480   1.00
O1       1.00000    0.50000    0.50000   1.00
Zn1      0.96720    0.53280    0.53280   1.00
Zn1      1.03280    0.46720    0.53280   1.00
Zn1      1.03280    0.53280    0.46720   1.00
Zn1      0.96720    0.46720    0.46720   1.00
O2       0.97650    0.52350    0.58820   1.00
O2       0.97650    0.58820    0.52350   1.00
O2       0.91180    0.52350    0.52350   1.00
O2       1.02350    0.47650    0.58820   1.00
O2       1.08820    0.47650    0.52350   1.00
O2       1.02350    0.41180    0.52350   1.00
O2       1.02350    0.58820    0.47650   1.00
O2       1.08820    0.52350    0.47650   1.00
O2       1.02350    0.52350    0.41180   1.00
O2       0.91180    0.47650    0.47650   1.00
O2       0.97650    0.41180    0.47650   1.00
O2       0.97650    0.47650    0.41180   1.00
C1       1.00000    0.50000    0.60520   1.00
C1       1.00000    0.60520    0.50000   1.00
C1       0.89480    0.50000    0.50000   1.00
C1       1.10520    0.50000    0.50000   1.00
C1       1.00000    0.39480    0.50000   1.00
C1       1.00000    0.50000    0.39480   1.00
O1       0.50000    0.50000    0.50000   1.00
Zn1      0.53280    0.46720    0.46720   1.00
Zn1      0.46720    0.53280    0.46720   1.00
Zn1      0.46720    0.46720    0.53280   1.00
Zn1      0.53280    0.53280    0.53280   1.00
O2       0.52350    0.47650    0.41180   1.00
O2       0.52350    0.41180    0.47650   1.00
O2       0.58820    0.47650    0.47650   1.00
O2       0.47650    0.52350    0.41180   1.00
O2       0.41180    0.52350    0.47650   1.00
O2       0.47650    0.58820    0.47650   1.00
O2       0.47650    0.41180    0.52350   1.00
O2       0.41180    0.47650    0.52350   1.00
O2       0.47650    0.47650    0.58820   1.00
O2       0.58820    0.52350    0.52350   1.00
O2       0.52350    0.58820    0.52350   1.00
O2       0.52350    0.52350    0.58820   1.00
C1       0.50000    0.50000    0.39480   1.00
C1       0.50000    0.39480    0.50000   1.00
C1       0.60520    0.50000    0.50000   1.00
C1       0.39480    0.50000    0.50000   1.00
C1       0.50000    0.60520    0.50000   1.00
C1       0.50000    0.50000    0.60520   1.00
O1       1.00000    1.00000    0.50000   1.00
Zn1      1.03280    0.96720    0.46720   1.00
Zn1      0.96720    1.03280    0.46720   1.00
Zn1      0.96720    0.96720    0.53280   1.00
Zn1      1.03280    1.03280    0.53280   1.00
O2       1.02350    0.97650    0.41180   1.00
O2       1.02350    0.91180    0.47650   1.00
O2       1.08820    0.97650    0.47650   1.00
O2       0.97650    1.02350    0.41180   1.00
O2       0.91180    1.02350    0.47650   1.00
O2       0.97650    1.08820    0.47650   1.00
O2       0.97650    0.91180    0.52350   1.00
O2       0.91180    0.97650    0.52350   1.00
O2       0.97650    0.97650    0.58820   1.00
O2       1.08820    1.02350    0.52350   1.00
O2       1.02350    1.08820    0.52350   1.00
O2       1.02350    1.02350    0.58820   1.00
C1       1.00000    1.00000    0.39480   1.00
C1       1.00000    0.89480    0.50000   1.00
C1       1.10520    1.00000    0.50000   1.00
C1       0.89480    1.00000    0.50000   1.00
C1       1.00000    1.10520    0.50000   1.00
C1       1.00000    1.00000    0.60520   1.00
O1       1.00000    0.50000    1.00000   1.00
Zn1      1.03280    0.46720    0.96720   1.00
Zn1      0.96720    0.53280    0.96720   1.00
Zn1      0.96720    0.46720    1.03280   1.00
Zn1      1.03280    0.53280    1.03280   1.00
O2       1.02350    0.47650    0.91180   1.00
O2       1.02350    0.41180    0.97650   1.00
O2       1.08820    0.47650    0.97650   1.00
O2       0.97650    0.52350    0.91180   1.00
O2       0.91180    0.52350    0.97650   1.00
O2       0.97650    0.58820    0.97650   1.00
O2       0.97650    0.41180    1.02350   1.00
O2       0.91180    0.47650    1.02350   1.00
O2       0.97650    0.47650    1.08820   1.00
O2       1.08820    0.52350    1.02350   1.00
O2       1.02350    0.58820    1.02350   1.00
O2       1.02350    0.52350    1.08820   1.00
C1       1.00000    0.50000    0.89480   1.00
C1       1.00000    0.39480    1.00000   1.00
C1       1.10520    0.50000    1.00000   1.00
C1       0.89480    0.50000    1.00000   1.00
C1       1.00000    0.60520    1.00000   1.00
C1       1.00000    0.50000    1.10520   1.00
O1       0.50000    1.00000    1.00000   1.00
Zn1      0.53280    0.96720    0.96720   1.00
Zn1      0.46720    1.03280    0.96720   1.00
Zn1      0.46720    0.96720    1.03280   1.00
Zn1      0.53280    1.03280    1.03280   1.00
O2       0.52350    0.97650    0.91180   1.00
O2       0.52350    0.91180    0.97650   1.00
O2       0.58820    0.97650    0.97650   1.00
O2       0.47650    1.02350    0.91180   1.00
O2       0.41180    1.02350    0.97650   1.00
O2       0.47650    1.08820    0.97650   1.00
O2       0.47650    0.91180    1.02350   1.00
O2       0.41180    0.97650    1.02350   1.00
O2       0.47650    0.97650    1.08820   1.00
O2       0.58820    1.02350    1.02350   1.00
O2       0.52350    1.08820    1.02350   1.00
O2       0.52350    1.02350    1.08820   1.00
C1       0.50000    1.00000    0.89480   1.00
C1       0.50000    0.89480    1.00000   1.00
C1       0.60520    1.00000    1.00000   1.00
C1       0.39480    1.00000    1.00000   1.00
C1       0.50000    1.10520    1.00000   1.00
C1       0.50000    1.00000    1.10520   1.00
C2       0.75000    0.75000    0.89720   1.00
C3a      0.75000    0.78493    0.91780   1.00
C3a      0.75000    0.71507    0.91780   1.00
H1       0.75000    0.80922    0.90380   1.00
H1       0.75000    0.69078    0.90380   1.00
C3a      0.75000    0.78528    0.95870   1.00
C3a      0.75000    0.71472    0.95870   1.00
H11      0.75000    0.80964    0.97250   1.00
H12      0.75000    0.69036    0.97250   1.00
C4       0.75000    0.75000    0.97940   1.00
C4       0.75000    0.75000    0.02060   1.00
C3a      0.75000    0.71472    0.04130   1.00
C3a      0.75000    0.78528    0.04130   1.00
H13      0.75000    0.69036    0.02750   1.00
H14      0.75000    0.80964    0.02750   1.00
C3a      0.75000    0.71507    0.08220   1.00
C3a      0.75000    0.78493    0.08220   1.00
H1       0.75000    0.69078    0.09620   1.00
H1       0.75000    0.80922    0.09620   1.00
C2       0.75000    0.75000    0.10280   1.00
C2       0.75000    0.89720    0.75000   1.00
C3a      0.78493    0.91780    0.75000   1.00
C3a      0.71507    0.91780    0.75000   1.00
H1       0.80922    0.90380    0.75000   1.00
H1       0.69078    0.90380    0.75000   1.00
C3a      0.78528    0.95870    0.75000   1.00
C3a      0.71472    0.95870    0.75000   1.00
H11      0.80964    0.97250    0.75000   1.00
H12      0.69036    0.97250    0.75000   1.00
C4       0.75000    0.97940    0.75000   1.00
C4       0.75000    0.02060    0.75000   1.00
C3a      0.71472    0.04130    0.75000   1.00
C3a      0.78528    0.04130    0.75000   1.00
H13      0.69036    0.02750    0.75000   1.00
H14      0.80964    0.02750    0.75000   1.00
C3a      0.71507    0.08220    0.75000   1.00
C3a      0.78493    0.08220    0.75000   1.00
H1       0.69078    0.09620    0.75000   1.00
H1       0.80922    0.09620    0.75000   1.00
C2       0.75000    0.10280    0.75000   1.00
C2       0.60280    0.75000    0.75000   1.00
C3a      0.58220    0.75000    0.71507   1.00
C3a      0.58220    0.75000    0.78493   1.00
H1       0.59620    0.75000    0.69078   1.00
H1       0.59620    0.75000    0.80922   1.00
C3a      0.54130    0.75000    0.71472   1.00
C3a      0.54130    0.75000    0.78528   1.00
H11      0.52750    0.75000    0.69036   1.00
H12      0.52750    0.75000    0.80964   1.00
C4       0.52060    0.75000    0.75000   1.00
C4       0.47940    0.75000    0.75000   1.00
C3a      0.45870    0.75000    0.78528   1.00
C3a      0.45870    0.75000    0.71472   1.00
H13      0.47250    0.75000    0.80964   1.00
H14      0.47250    0.75000    0.69036   1.00
C3a      0.41780    0.75000    0.78493   1.00
C3a      0.41780    0.75000    0.71507   1.00
H1       0.40380    0.75000    0.80922   1.00
H1       0.40380    0.75000    0.69078   1.00
C2       0.39720    0.75000    0.75000   1.00
C2       0.89720    0.75000    0.75000   1.00
C3a      0.91780    0.75000    0.78493   1.00
C3a      0.91780    0.75000    0.71507   1.00
H1       0.90380    0.75000    0.80922   1.00
H1       0.90380    0.75000    0.69078   1.00
C3a      0.95870    0.75000    0.78528   1.00
C3a      0.95870    0.75000    0.71472   1.00
H11      0.97250    0.75000    0.80964   1.00
H12      0.97250    0.75000    0.69036   1.00
C4       0.97940    0.75000    0.75000   1.00
C4       0.02060    0.75000    0.75000   1.00
C3a      0.04130    0.75000    0.71472   1.00
C3a      0.04130    0.75000    0.78528   1.00
H13      0.02750    0.75000    0.69036   1.00
H14      0.02750    0.75000    0.80964   1.00
C3a      0.08220    0.75000    0.71507   1.00
C3a      0.08220    0.75000    0.78493   1.00
H1       0.09620    0.75000    0.69078   1.00
H1       0.09620    0.75000    0.80922   1.00
C2       0.10280    0.75000    0.75000   1.00
C2       0.75000    0.60280    0.75000   1.00
C3a      0.71507    0.58220    0.75000   1.00
C3a      0.78493    0.58220    0.75000   1.00
H1       0.69078    0.59620    0.75000   1.00
H1       0.80922    0.59620    0.75000   1.00
C3a      0.71472    0.54130    0.75000   1.00
C3a      0.78528    0.54130    0.75000   1.00
H11      0.69036    0.52750    0.75000   1.00
H12      0.80964    0.52750    0.75000   1.00
C4       0.75000    0.52060    0.75000   1.00
C4       0.75000    0.47940    0.75000   1.00
C3a      0.78528    0.45870    0.75000   1.00
C3a      0.71472    0.45870    0.75000   1.00
H13      0.80964    0.47250    0.75000   1.00
H14      0.69036    0.47250    0.75000   1.00
C3a      0.78493    0.41780    0.75000   1.00
C3a      0.71507    0.41780    0.75000   1.00
H1       0.80922    0.40380    0.75000   1.00
H1       0.69078    0.40380    0.75000   1.00
C2       0.75000    0.39720    0.75000   1.00
C2       0.75000    0.75000    0.60280   1.00
C3a      0.75000    0.71507    0.58220   1.00
C3a      0.75000    0.78493    0.58220   1.00
H1       0.75000    0.69078    0.59620   1.00
H1       0.75000    0.80922    0.59620   1.00
C3a      0.75000    0.71472    0.54130   1.00
C3a      0.75000    0.78528    0.54130   1.00
H11      0.75000    0.69036    0.52750   1.00
H12      0.75000    0.80964    0.52750   1.00
C4       0.75000    0.75000    0.52060   1.00
C4       0.75000    0.75000    0.47940   1.00
C3a      0.75000    0.78528    0.45870   1.00
C3a      0.75000    0.71472    0.45870   1.00
H13      0.75000    0.80964    0.47250   1.00
H14      0.75000    0.69036    0.47250   1.00
C3a      0.75000    0.78493    0.41780   1.00
C3a      0.75000    0.71507    0.41780   1.00
H1       0.75000    0.80922    0.40380   1.00
H1       0.75000    0.69078    0.40380   1.00
C2       0.75000    0.75000    0.39720   1.00
C2       0.25000    0.25000    0.89720   1.00
C3a      0.25000    0.28493    0.91780   1.00
C3a      0.25000    0.21507    0.91780   1.00
H1       0.25000    0.30922    0.90380   1.00
H1       0.25000    0.19078    0.90380   1.00
C3a      0.25000    0.28528    0.95870   1.00
C3a      0.25000    0.21472    0.95870   1.00
H11      0.25000    0.30964    0.97250   1.00
H12      0.25000    0.19036    0.97250   1.00
C4       0.25000    0.25000    0.97940   1.00
C4       0.25000    0.25000    0.02060   1.00
C3a      0.25000    0.21472    0.04130   1.00
C3a      0.25000    0.28528    0.04130   1.00
H13      0.25000    0.19036    0.02750   1.00
H14      0.25000    0.30964    0.02750   1.00
C3a      0.25000    0.21507    0.08220   1.00
C3a      0.25000    0.28493    0.08220   1.00
H1       0.25000    0.19078    0.09620   1.00
H1       0.25000    0.30922    0.09620   1.00
C2       0.25000    0.25000    0.10280   1.00
C2       0.25000    0.39720    0.75000   1.00
C3a      0.28493    0.41780    0.75000   1.00
C3a      0.21507    0.41780    0.75000   1.00
H1       0.30922    0.40380    0.75000   1.00
H1       0.19078    0.40380    0.75000   1.00
C3a      0.28528    0.45870    0.75000   1.00
C3a      0.21472    0.45870    0.75000   1.00
H11      0.30964    0.47250    0.75000   1.00
H12      0.19036    0.47250    0.75000   1.00
C4       0.25000    0.47940    0.75000   1.00
C4       0.25000    0.52060    0.75000   1.00
C3a      0.21472    0.54130    0.75000   1.00
C3a      0.28528    0.54130    0.75000   1.00
H13      0.19036    0.52750    0.75000   1.00
H14      0.30964    0.52750    0.75000   1.00
C3a      0.21507    0.58220    0.75000   1.00
C3a      0.28493    0.58220    0.75000   1.00
H1       0.19078    0.59620    0.75000   1.00
H1       0.30922    0.59620    0.75000   1.00
C2       0.25000    0.60280    0.75000   1.00
C2       0.10280    0.25000    0.75000   1.00
C3a      0.08220    0.25000    0.71507   1.00
C3a      0.08220    0.25000    0.78493   1.00
H1       0.09620    0.25000    0.69078   1.00
H1       0.09620    0.25000    0.80922   1.00
C3a      0.04130    0.25000    0.71472   1.00
C3a      0.04130    0.25000    0.78528   1.00
H11      0.02750    0.25000    0.69036   1.00
H12      0.02750    0.25000    0.80964   1.00
C4       0.02060    0.25000    0.75000   1.00
C4       0.97940    0.25000    0.75000   1.00
C3a      0.95870    0.25000    0.78528   1.00
C3a      0.95870    0.25000    0.71472   1.00
H13      0.97250    0.25000    0.80964   1.00
H14      0.97250    0.25000    0.69036   1.00
C3a      0.91780    0.25000    0.78493   1.00
C3a      0.91780    0.25000    0.71507   1.00
H1       0.90380    0.25000    0.80922   1.00
H1       0.90380    0.25000    0.69078   1.00
C2       0.89720    0.25000    0.75000   1.00
C2       0.39720    0.25000    0.75000   1.00
C3a      0.41780    0.25000    0.78493   1.00
C3a      0.41780    0.25000    0.71507   1.00
H1       0.40380    0.25000    0.80922   1.00
H1       0.40380    0.25000    0.69078   1.00
C3a      0.45870    0.25000    0.78528   1.00
C3a      0.45870    0.25000    0.71472   1.00
H11      0.47250    0.25000    0.80964   1.00
H12      0.47250    0.25000    0.69036   1.00
C4       0.47940    0.25000    0.75000   1.00
C4       0.52060    0.25000    0.75000   1.00
C3a      0.54130    0.25000    0.71472   1.00
C3a      0.54130    0.25000    0.78528   1.00
H13      0.52750    0.25000    0.69036   1.00
H14      0.52750    0.25000    0.80964   1.00
C3a      0.58220    0.25000    0.71507   1.00
C3a      0.58220    0.25000    0.78493   1.00
H1       0.59620    0.25000    0.69078   1.00
H1       0.59620    0.25000    0.80922   1.00
C2       0.60280    0.25000    0.75000   1.00
C2       0.25000    0.10280    0.75000   1.00
C3a      0.21507    0.08220    0.75000   1.00
C3a      0.28493    0.08220    0.75000   1.00
H1       0.19078    0.09620    0.75000   1.00
H1       0.30922    0.09620    0.75000   1.00
C3a      0.21472    0.04130    0.75000   1.00
C3a      0.28528    0.04130    0.75000   1.00
H11      0.19036    0.02750    0.75000   1.00
H12      0.30964    0.02750    0.75000   1.00
C4       0.25000    0.02060    0.75000   1.00
C4       0.25000    0.97940    0.75000   1.00
C3a      0.28528    0.95870    0.75000   1.00
C3a      0.21472    0.95870    0.75000   1.00
H13      0.30964    0.97250    0.75000   1.00
H14      0.19036    0.97250    0.75000   1.00
C3a      0.28493    0.91780    0.75000   1.00
C3a      0.21507    0.91780    0.75000   1.00
H1       0.30922    0.90380    0.75000   1.00
H1       0.19078    0.90380    0.75000   1.00
C2       0.25000    0.89720    0.75000   1.00
C2       0.25000    0.25000    0.60280   1.00
C3a      0.25000    0.21507    0.58220   1.00
C3a      0.25000    0.28493    0.58220   1.00
H1       0.25000    0.19078    0.59620   1.00
H1       0.25000    0.30922    0.59620   1.00
C3a      0.25000    0.21472    0.54130   1.00
C3a      0.25000    0.28528    0.54130   1.00
H11      0.25000    0.19036    0.52750   1.00
H12      0.25000    0.30964    0.52750   1.00
C4       0.25000    0.25000    0.52060   1.00
C4       0.25000    0.25000    0.47940   1.00
C3a      0.25000    0.28528    0.45870   1.00
C3a      0.25000    0.21472    0.45870   1.00
H13      0.25000    0.30964    0.47250   1.00
H14      0.25000    0.19036    0.47250   1.00
C3a      0.25000    0.28493    0.41780   1.00
C3a      0.25000    0.21507    0.41780   1.00
H1       0.25000    0.30922    0.40380   1.00
H1       0.25000    0.19078    0.40380   1.00
C2       0.25000    0.25000    0.39720   1.00
C2       0.25000    0.75000    0.39720   1.00
C3a      0.25000    0.78493    0.41780   1.00
C3a      0.25000    0.71507    0.41780   1.00
H1       0.25000    0.80922    0.40380   1.00
H1       0.25000    0.69078    0.40380   1.00
C3a      0.25000    0.78528    0.45870   1.00
C3a      0.25000    0.71472    0.45870   1.00
H11      0.25000    0.80964    0.47250   1.00
H12      0.25000    0.69036    0.47250   1.00
C4       0.25000    0.75000    0.47940   1.00
C4       0.25000    0.75000    0.52060   1.00
C3a      0.25000    0.71472    0.54130   1.00
C3a      0.25000    0.78528    0.54130   1.00
H13      0.25000    0.69036    0.52750   1.00
H14      0.25000    0.80964    0.52750   1.00
C3a      0.25000    0.71507    0.58220   1.00
C3a      0.25000    0.78493    0.58220   1.00
H1       0.25000    0.69078    0.59620   1.00
H1       0.25000    0.80922    0.59620   1.00
C2       0.25000    0.75000    0.60280   1.00
C2       0.25000    0.89720    0.25000   1.00
C3a      0.28493    0.91780    0.25000   1.00
C3a      0.21507    0.91780    0.25000   1.00
H1       0.30922    0.90380    0.25000   1.00
H1       0.19078    0.90380    0.25000   1.00
C3a      0.28528    0.95870    0.25000   1.00
C3a      0.21472    0.95870    0.25000   1.00
H11      0.30964    0.97250    0.25000   1.00
H12      0.19036    0.97250    0.25000   1.00
C4       0.25000    0.97940    0.25000   1.00
C4       0.25000    0.02060    0.25000   1.00
C3a      0.21472    0.04130    0.25000   1.00
C3a      0.28528    0.04130    0.25000   1.00
H13      0.19036    0.02750    0.25000   1.00
H14      0.30964    0.02750    0.25000   1.00
C3a      0.21507    0.08220    0.25000   1.00
C3a      0.28493    0.08220    0.25000   1.00
H1       0.19078    0.09620    0.25000   1.00
H1       0.30922    0.09620    0.25000   1.00
C2       0.25000    0.10280    0.25000   1.00
C2       0.10280    0.75000    0.25000   1.00
C3a      0.08220    0.75000    0.21507   1.00
C3a      0.08220    0.75000    0.28493   1.00
H1       0.09620    0.75000    0.19078   1.00
H1       0.09620    0.75000    0.30922   1.00
C3a      0.04130    0.75000    0.21472   1.00
C3a      0.04130    0.75000    0.28528   1.00
H11      0.02750    0.75000    0.19036   1.00
H12      0.02750    0.75000    0.30964   1.00
C4       0.02060    0.75000    0.25000   1.00
C4       0.97940    0.75000    0.25000   1.00
C3a      0.95870    0.75000    0.28528   1.00
C3a      0.95870    0.75000    0.21472   1.00
H13      0.97250    0.75000    0.30964   1.00
H14      0.97250    0.75000    0.19036   1.00
C3a      0.91780    0.75000    0.28493   1.00
C3a      0.91780    0.75000    0.21507   1.00
H1       0.90380    0.75000    0.30922   1.00
H1       0.90380    0.75000    0.19078   1.00
C2       0.89720    0.75000    0.25000   1.00
C2       0.39720    0.75000    0.25000   1.00
C3a      0.41780    0.75000    0.28493   1.00
C3a      0.41780    0.75000    0.21507   1.00
H1       0.40380    0.75000    0.30922   1.00
H1       0.40380    0.75000    0.19078   1.00
C3a      0.45870    0.75000    0.28528   1.00
C3a      0.45870    0.75000    0.21472   1.00
H11      0.47250    0.75000    0.30964   1.00
H12      0.47250    0.75000    0.19036   1.00
C4       0.47940    0.75000    0.25000   1.00
C4       0.52060    0.75000    0.25000   1.00
C3a      0.54130    0.75000    0.21472   1.00
C3a      0.54130    0.75000    0.28528   1.00
H13      0.52750    0.75000    0.19036   1.00
H14      0.52750    0.75000    0.30964   1.00
C3a      0.58220    0.75000    0.21507   1.00
C3a      0.58220    0.75000    0.28493   1.00
H1       0.59620    0.75000    0.19078   1.00
H1       0.59620    0.75000    0.30922   1.00
C2       0.60280    0.75000    0.25000   1.00
C2       0.25000    0.60280    0.25000   1.00
C3a      0.21507    0.58220    0.25000   1.00
C3a      0.28493    0.58220    0.25000   1.00
H1       0.19078    0.59620    0.25000   1.00
H1       0.30922    0.59620    0.25000   1.00
C3a      0.21472    0.54130    0.25000   1.00
C3a      0.28528    0.54130    0.25000   1.00
H11      0.19036    0.52750    0.25000   1.00
H12      0.30964    0.52750    0.25000   1.00
C4       0.25000    0.52060    0.25000   1.00
C4       0.25000    0.47940    0.25000   1.00
C3a      0.28528    0.45870    0.25000   1.00
C3a      0.21472    0.45870    0.25000   1.00
H13      0.30964    0.47250    0.25000   1.00
H14      0.19036    0.47250    0.25000   1.00
C3a      0.28493    0.41780    0.25000   1.00
C3a      0.21507    0.41780    0.25000   1.00
H1       0.30922    0.40380    0.25000   1.00
H1       0.19078    0.40380    0.25000   1.00
C2       0.25000    0.39720    0.25000   1.00
C2       0.25000    0.75000    0.10280   1.00
C3a      0.25000    0.71507    0.08220   1.00
C3a      0.25000    0.78493    0.08220   1.00
H1       0.25000    0.69078    0.09620   1.00
H1       0.25000    0.80922    0.09620   1.00
C3a      0.25000    0.71472    0.04130   1.00
C3a      0.25000    0.78528    0.04130   1.00
H11      0.25000    0.69036    0.02750   1.00
H12      0.25000    0.80964    0.02750   1.00
C4       0.25000    0.75000    0.02060   1.00
C4       0.25000    0.75000    0.97940   1.00
C3a      0.25000    0.78528    0.95870   1.00
C3a      0.25000    0.71472    0.95870   1.00
H13      0.25000    0.80964    0.97250   1.00
H14      0.25000    0.69036    0.97250   1.00
C3a      0.25000    0.78493    0.91780   1.00
C3a      0.25000    0.71507    0.91780   1.00
H1       0.25000    0.80922    0.90380   1.00
H1       0.25000    0.69078    0.90380   1.00
C2       0.25000    0.75000    0.89720   1.00
C2       0.75000    0.25000    0.39720   1.00
C3a      0.75000    0.28493    0.41780   1.00
C3a      0.75000    0.21507    0.41780   1.00
H1       0.75000    0.30922    0.40380   1.00
H1       0.75000    0.19078    0.40380   1.00
C3a      0.75000    0.28528    0.45870   1.00
C3a      0.75000    0.21472    0.45870   1.00
H11      0.75000    0.30964    0.47250   1.00
H12      0.75000    0.19036    0.47250   1.00
C4       0.75000    0.25000    0.47940   1.00
C4       0.75000    0.25000    0.52060   1.00
C3a      0.75000    0.21472    0.54130   1.00
C3a      0.75000    0.28528    0.54130   1.00
H13      0.75000    0.19036    0.52750   1.00
H14      0.75000    0.30964    0.52750   1.00
C3a      0.75000    0.21507    0.58220   1.00
C3a      0.75000    0.28493    0.58220   1.00
H1       0.75000    0.19078    0.59620   1.00
H1       0.75000    0.30922    0.59620   1.00
C2       0.75000    0.25000    0.60280   1.00
C2       0.75000    0.39720    0.25000   1.00
C3a      0.78493    0.41780    0.25000   1.00
C3a      0.71507    0.41780    0.25000   1.00
H1       0.80922    0.40380    0.25000   1.00
H1       0.69078    0.40380    0.25000   1.00
C3a      0.78528    0.45870    0.25000   1.00
C3a      0.71472    0.45870    0.25000   1.00
H11      0.80964    0.47250    0.25000   1.00
H12      0.69036    0.47250    0.25000   1.00
C4       0.75000    0.47940    0.25000   1.00
C4       0.75000    0.52060    0.25000   1.00
C3a      0.71472    0.54130    0.25000   1.00
C3a      0.78528    0.54130    0.25000   1.00
H13      0.69036    0.52750    0.25000   1.00
H14      0.80964    0.52750    0.25000   1.00
C3a      0.71507    0.58220    0.25000   1.00
C3a      0.78493    0.58220    0.25000   1.00
H1       0.69078    0.59620    0.25000   1.00
H1       0.80922    0.59620    0.25000   1.00
C2       0.75000    0.60280    0.25000   1.00
C2       0.60280    0.25000    0.25000   1.00
C3a      0.58220    0.25000    0.21507   1.00
C3a      0.58220    0.25000    0.28493   1.00
H1       0.59620    0.25000    0.19078   1.00
H1       0.59620    0.25000    0.30922   1.00
C3a      0.54130    0.25000    0.21472   1.00
C3a      0.54130    0.25000    0.28528   1.00
H11      0.52750    0.25000    0.19036   1.00
H12      0.52750    0.25000    0.30964   1.00
C4       0.52060    0.25000    0.25000   1.00
C4       0.47940    0.25000    0.25000   1.00
C3a      0.45870    0.25000    0.28528   1.00
C3a      0.45870    0.25000    0.21472   1.00
H13      0.47250    0.25000    0.30964   1.00
H14      0.47250    0.25000    0.19036   1.00
C3a      0.41780    0.25000    0.28493   1.00
C3a      0.41780    0.25000    0.21507   1.00
H1       0.40380    0.25000    0.30922   1.00
H1       0.40380    0.25000    0.19078   1.00
C2       0.39720    0.25000    0.25000   1.00
C2       0.89720    0.25000    0.25000   1.00
C3a      0.91780    0.25000    0.28493   1.00
C3a      0.91780    0.25000    0.21507   1.00
H1       0.90380    0.25000    0.30922   1.00
H1       0.90380    0.25000    0.19078   1.00
C3a      0.95870    0.25000    0.28528   1.00
C3a      0.95870    0.25000    0.21472   1.00
H11      0.97250    0.25000    0.30964   1.00
H12      0.97250    0.25000    0.19036   1.00
C4       0.97940    0.25000    0.25000   1.00
C4       0.02060    0.25000    0.25000   1.00
C3a      0.04130    0.25000    0.21472   1.00
C3a      0.04130    0.25000    0.28528   1.00
H13      0.02750    0.25000    0.19036   1.00
H14      0.02750    0.25000    0.30964   1.00
C3a      0.08220    0.25000    0.21507   1.00
C3a      0.08220    0.25000    0.28493   1.00
H1       0.09620    0.25000    0.19078   1.00
H1       0.09620    0.25000    0.30922   1.00
C2       0.10280    0.25000    0.25000   1.00
C2       0.75000    0.10280    0.25000   1.00
C3a      0.71507    0.08220    0.25000   1.00
C3a      0.78493    0.08220    0.25000   1.00
H1       0.69078    0.09620    0.25000   1.00
H1       0.80922    0.09620    0.25000   1.00
C3a      0.71472    0.04130    0.25000   1.00
C3a      0.78528    0.04130    0.25000   1.00
H11      0.69036    0.02750    0.25000   1.00
H12      0.80964    0.02750    0.25000   1.00
C4       0.75000    0.02060    0.25000   1.00
C4       0.75000    0.97940    0.25000   1.00
C3a      0.78528    0.95870    0.25000   1.00
C3a      0.71472    0.95870    0.25000   1.00
H13      0.80964    0.97250    0.25000   1.00
H14      0.69036    0.97250    0.25000   1.00
C3a      0.78493    0.91780    0.25000   1.00
C3a      0.71507    0.91780    0.25000   1.00
H1       0.80922    0.90380    0.25000   1.00
H1       0.69078    0.90380    0.25000   1.00
C2       0.75000    0.89720    0.25000   1.00
C2       0.75000    0.25000    0.10280   1.00
C3a      0.75000    0.21507    0.08220   1.00
C3a      0.75000    0.28493    0.08220   1.00
H1       0.75000    0.19078    0.09620   1.00
H1       0.75000    0.30922    0.09620   1.00
C3a      0.75000    0.21472    0.04130   1.00
C3a      0.75000    0.28528    0.04130   1.00
H11      0.75000    0.19036    0.02750   1.00
H12      0.75000    0.30964    0.02750   1.00
C4       0.75000    0.25000    0.02060   1.00
C4       0.75000    0.25000    0.97940   1.00
C3a      0.75000    0.28528    0.95870   1.00
C3a      0.75000    0.21472    0.95870   1.00
H13      0.75000    0.30964    0.97250   1.00
H14      0.75000    0.19036    0.97250   1.00
C3a      0.75000    0.28493    0.91780   1.00
C3a      0.75000    0.21507    0.91780   1.00
H1       0.75000    0.30922    0.90380   1.00
H1       0.75000    0.19078    0.90380   1.00
C2       0.75000    0.25000    0.89720   1.00
C2       1.00000    1.00000    1.14720   1.00
C3a      1.00000    1.03493    1.16780   1.00
C3a      1.00000    0.96507    1.16780   1.00
H1       1.00000    1.05922    1.15380   1.00
H1       1.00000    0.94078    1.15380   1.00
C3a      1.00000    1.03528    1.20870   1.00
C3a      1.00000    0.96472    1.20870   1.00
H11      1.00000    1.05964    1.22250   1.00
H12      1.00000    0.94036    1.22250   1.00
C4       1.00000    1.00000    1.22940   1.00
C4       1.00000    1.00000    0.27060   1.00
C3a      1.00000    0.96472    0.29130   1.00
C3a      1.00000    1.03528    0.29130   1.00
H13      1.00000    0.94036    0.27750   1.00
H14      1.00000    1.05964    0.27750   1.00
C3a      1.00000    0.96507    0.33220   1.00
C3a      1.00000    1.03493    0.33220   1.00
H1       1.00000    0.94078    0.34620   1.00
H1       1.00000    1.05922    0.34620   1.00
C2       1.00000    1.00000    0.35280   1.00
C2       1.00000    1.14720    1.00000   1.00
C3a      1.03493    1.16780    1.00000   1.00
C3a      0.96507    1.16780    1.00000   1.00
H1       1.05922    1.15380    1.00000   1.00
H1       0.94078    1.15380    1.00000   1.00
C3a      1.03528    1.20870    1.00000   1.00
C3a      0.96472    1.20870    1.00000   1.00
H11      1.05964    1.22250    1.00000   1.00
H12      0.94036    1.22250    1.00000   1.00
C4       1.00000    1.22940    1.00000   1.00
C4       1.00000    0.27060    1.00000   1.00
C3a      0.96472    0.29130    1.00000   1.00
C3a      1.03528    0.29130    1.00000   1.00
H13      0.94036    0.27750    1.00000   1.00
H14      1.05964    0.27750    1.00000   1.00
C3a      0.96507    0.33220    1.00000   1.00
C3a      1.03493    0.33220    1.00000   1.00
H1       0.94078    0.34620    1.00000   1.00
H1       1.05922    0.34620    1.00000   1.00
C2       1.00000    0.35280    1.00000   1.00
C2       0.85280    1.00000    1.00000   1.00
C3a      0.83220    1.00000    0.96507   1.00
C3a      0.83220    1.00000    1.03493   1.00
H1       0.84620    1.00000    0.94078   1.00
H1       0.84620    1.00000    1.05922   1.00
C3a      0.79130    1.00000    0.96472   1.00
C3a      0.79130    1.00000    1.03528   1.00
H11      0.77750    1.00000    0.94036   1.00
H12      0.77750    1.00000    1.05964   1.00
C4       0.77060    1.00000    1.00000   1.00
C4       0.72940    1.00000    1.00000   1.00
C3a      0.70870    1.00000    1.03528   1.00
C3a      0.70870    1.00000    0.96472   1.00
H13      0.72250    1.00000    1.05964   1.00
H14      0.72250    1.00000    0.94036   1.00
C3a      0.66780    1.00000    1.03493   1.00
C3a      0.66780    1.00000    0.96507   1.00
H1       0.65380    1.00000    1.05922   1.00
H1       0.65380    1.00000    0.94078   1.00
C2       0.64720    1.00000    1.00000   1.00
C2       1.14720    1.00000    1.00000   1.00
C3a      1.16780    1.00000    1.03493   1.00
C3a      1.16780    1.00000    0.96507   1.00
H1       1.15380    1.00000    1.05922   1.00
H1       1.15380    1.00000    0.94078   1.00
C3a      1.20870    1.00000    1.03528   1.00
C3a      1.20870    1.00000    0.96472   1.00
H11      1.22250    1.00000    1.05964   1.00
H12      1.22250    1.00000    0.94036   1.00
C4       1.22940    1.00000    1.00000   1.00
C4       0.27060    1.00000    1.00000   1.00
C3a      0.29130    1.00000    0.96472   1.00
C3a      0.29130    1.00000    1.03528   1.00
H13      0.27750    1.00000    0.94036   1.00
H14      0.27750    1.00000    1.05964   1.00
C3a      0.33220    1.00000    0.96507   1.00
C3a      0.33220    1.00000    1.03493   1.00
H1       0.34620    1.00000    0.94078   1.00
H1       0.34620    1.00000    1.05922   1.00
C2       0.35280    1.00000    1.00000   1.00
C2       1.00000    0.85280    1.00000   1.00
C3a      0.96507    0.83220    1.00000   1.00
C3a      1.03493    0.83220    1.00000   1.00
H1       0.94078    0.84620    1.00000   1.00
H1       1.05922    0.84620    1.00000   1.00
C3a      0.96472    0.79130    1.00000   1.00
C3a      1.03528    0.79130    1.00000   1.00
H11      0.94036    0.77750    1.00000   1.00
H12      1.05964    0.77750    1.00000   1.00
C4       1.00000    0.77060    1.00000   1.00
C4       1.00000    0.72940    1.00000   1.00
C3a      1.03528    0.70870    1.00000   1.00
C3a      0.96472    0.70870    1.00000   1.00
H13      1.05964    0.72250    1.00000   1.00
H14      0.94036    0.72250    1.00000   1.00
C3a      1.03493    0.66780    1.00000   1.00
C3a      0.96507    0.66780    1.00000   1.00
H1       1.05922    0.65380    1.00000   1.00
H1       0.94078    0.65380    1.00000   1.00
C2       1.00000    0.64720    1.00000   1.00
C2       1.00000    1.00000    0.85280   1.00
C3a      1.00000    0.96507    0.83220   1.00
C3a      1.00000    1.03493    0.83220   1.00
H1       1.00000    0.94078    0.84620   1.00
H1       1.00000    1.05922    0.84620   1.00
C3a      1.00000    0.96472    0.79130   1.00
C3a      1.00000    1.03528    0.79130   1.00
H11      1.00000    0.94036    0.77750   1.00
H12      1.00000    1.05964    0.77750   1.00
C4       1.00000    1.00000    0.77060   1.00
C4       1.00000    1.00000    0.72940   1.00
C3a      1.00000    1.03528    0.70870   1.00
C3a      1.00000    0.96472    0.70870   1.00
H13      1.00000    1.05964    0.72250   1.00
H14      1.00000    0.94036    0.72250   1.00
C3a      1.00000    1.03493    0.66780   1.00
C3a      1.00000    0.96507    0.66780   1.00
H1       1.00000    1.05922    0.65380   1.00
H1       1.00000    0.94078    0.65380   1.00
C2       1.00000    1.00000    0.64720   1.00
C2       0.50000    0.50000    1.14720   1.00
C3a      0.50000    0.53493    1.16780   1.00
C3a      0.50000    0.46507    1.16780   1.00
H1       0.50000    0.55922    1.15380   1.00
H1       0.50000    0.44078    1.15380   1.00
C3a      0.50000    0.53528    1.20870   1.00
C3a      0.50000    0.46472    1.20870   1.00
H11      0.50000    0.55964    1.22250   1.00
H12      0.50000    0.44036    1.22250   1.00
C4       0.50000    0.50000    1.22940   1.00
C4       0.50000    0.50000    0.27060   1.00
C3a      0.50000    0.46472    0.29130   1.00
C3a      0.50000    0.53528    0.29130   1.00
H13      0.50000    0.44036    0.27750   1.00
H14      0.50000    0.55964    0.27750   1.00
C3a      0.50000    0.46507    0.33220   1.00
C3a      0.50000    0.53493    0.33220   1.00
H1       0.50000    0.44078    0.34620   1.00
H1       0.50000    0.55922    0.34620   1.00
C2       0.50000    0.50000    0.35280   1.00
C2       0.50000    0.64720    1.00000   1.00
C3a      0.53493    0.66780    1.00000   1.00
C3a      0.46507    0.66780    1.00000   1.00
H1       0.55922    0.65380    1.00000   1.00
H1       0.44078    0.65380    1.00000   1.00
C3a      0.53528    0.70870    1.00000   1.00
C3a      0.46472    0.70870    1.00000   1.00
H11      0.55964    0.72250    1.00000   1.00
H12      0.44036    0.72250    1.00000   1.00
C4       0.50000    0.72940    1.00000   1.00
C4       0.50000    0.77060    1.00000   1.00
C3a      0.46472    0.79130    1.00000   1.00
C3a      0.53528    0.79130    1.00000   1.00
H13      0.44036    0.77750    1.00000   1.00
H14      0.55964    0.77750    1.00000   1.00
C3a      0.46507    0.83220    1.00000   1.00
C3a      0.53493    0.83220    1.00000   1.00
H1       0.44078    0.84620    1.00000   1.00
H1       0.55922    0.84620    1.00000   1.00
C2       0.50000    0.85280    1.00000   1.00
C2       0.35280    0.50000    1.00000   1.00
C3a      0.33220    0.50000    0.96507   1.00
C3a      0.33220    0.50000    1.03493   1.00
H1       0.34620    0.50000    0.94078   1.00
H1       0.34620    0.50000    1.05922   1.00
C3a      0.29130    0.50000    0.96472   1.00
C3a      0.29130    0.50000    1.03528   1.00
H11      0.27750    0.50000    0.94036   1.00
H12      0.27750    0.50000    1.05964   1.00
C4       0.27060    0.50000    1.00000   1.00
C4       1.22940    0.50000    1.00000   1.00
C3a      1.20870    0.50000    1.03528   1.00
C3a      1.20870    0.50000    0.96472   1.00
H13      1.22250    0.50000    1.05964   1.00
H14      1.22250    0.50000    0.94036   1.00
C3a      1.16780    0.50000    1.03493   1.00
C3a      1.16780    0.50000    0.96507   1.00
H1       1.15380    0.50000    1.05922   1.00
H1       1.15380    0.50000    0.94078   1.00
C2       1.14720    0.50000    1.00000   1.00
C2       0.64720    0.50000    1.00000   1.00
C3a      0.66780    0.50000    1.03493   1.00
C3a      0.66780    0.50000    0.96507   1.00
H1       0.65380    0.50000    1.05922   1.00
H1       0.65380    0.50000    0.94078   1.00
C3a      0.70870    0.50000    1.03528   1.00
C3a      0.70870    0.50000    0.96472   1.00
H11      0.72250    0.50000    1.05964   1.00
H12      0.72250    0.50000    0.94036   1.00
C4       0.72940    0.50000    1.00000   1.00
C4       0.77060    0.50000    1.00000   1.00
C3a      0.79130    0.50000    0.96472   1.00
C3a      0.79130    0.50000    1.03528   1.00
H13      0.77750    0.50000    0.94036   1.00
H14      0.77750    0.50000    1.05964   1.00
C3a      0.83220    0.50000    0.96507   1.00
C3a      0.83220    0.50000    1.03493   1.00
H1       0.84620    0.50000    0.94078   1.00
H1       0.84620    0.50000    1.05922   1.00
C2       0.85280    0.50000    1.00000   1.00
C2       0.50000    0.35280    1.00000   1.00
C3a      0.46507    0.33220    1.00000   1.00
C3a      0.53493    0.33220    1.00000   1.00
H1       0.44078    0.34620    1.00000   1.00
H1       0.55922    0.34620    1.00000   1.00
C3a      0.46472    0.29130    1.00000   1.00
C3a      0.53528    0.29130    1.00000   1.00
H11      0.44036    0.27750    1.00000   1.00
H12      0.55964    0.27750    1.00000   1.00
C4       0.50000    0.27060    1.00000   1.00
C4       0.50000    1.22940    1.00000   1.00
C3a      0.53528    1.20870    1.00000   1.00
C3a      0.46472    1.20870    1.00000   1.00
H13      0.55964    1.22250    1.00000   1.00
H14      0.44036    1.22250    1.00000   1.00
C3a      0.53493    1.16780    1.00000   1.00
C3a      0.46507    1.16780    1.00000   1.00
H1       0.55922    1.15380    1.00000   1.00
H1       0.44078    1.15380    1.00000   1.00
C2       0.50000    1.14720    1.00000   1.00
C2       0.50000    0.50000    0.85280   1.00
C3a      0.50000    0.46507    0.83220   1.00
C3a      0.50000    0.53493    0.83220   1.00
H1       0.50000    0.44078    0.84620   1.00
H1       0.50000    0.55922    0.84620   1.00
C3a      0.50000    0.46472    0.79130   1.00
C3a      0.50000    0.53528    0.79130   1.00
H11      0.50000    0.44036    0.77750   1.00
H12      0.50000    0.55964    0.77750   1.00
C4       0.50000    0.50000    0.77060   1.00
C4       0.50000    0.50000    0.72940   1.00
C3a      0.50000    0.53528    0.70870   1.00
C3a      0.50000    0.46472    0.70870   1.00
H13      0.50000    0.55964    0.72250   1.00
H14      0.50000    0.44036    0.72250   1.00
C3a      0.50000    0.53493    0.66780   1.00
C3a      0.50000    0.46507    0.66780   1.00
H1       0.50000    0.55922    0.65380   1.00
H1       0.50000    0.44078    0.65380   1.00
C2       0.50000    0.50000    0.64720   1.00
C2       0.50000    1.00000    0.64720   1.00
C3a      0.50000    1.03493    0.66780   1.00
C3a      0.50000    0.96507    0.66780   1.00
H1       0.50000    1.05922    0.65380   1.00
H1       0.50000    0.94078    0.65380   1.00
C3a      0.50000    1.03528    0.70870   1.00
C3a      0.50000    0.96472    0.70870   1.00
H11      0.50000    1.05964    0.72250   1.00
H12      0.50000    0.94036    0.72250   1.00
C4       0.50000    1.00000    0.72940   1.00
C4       0.50000    1.00000    0.77060   1.00
C3a      0.50000    0.96472    0.79130   1.00
C3a      0.50000    1.03528    0.79130   1.00
H13      0.50000    0.94036    0.77750   1.00
H14      0.50000    1.05964    0.77750   1.00
C3a      0.50000    0.96507    0.83220   1.00
C3a      0.50000    1.03493    0.83220   1.00
H1       0.50000    0.94078    0.84620   1.00
H1       0.50000    1.05922    0.84620   1.00
C2       0.50000    1.00000    0.85280   1.00
C2       0.50000    1.14720    0.50000   1.00
C3a      0.53493    1.16780    0.50000   1.00
C3a      0.46507    1.16780    0.50000   1.00
H1       0.55922    1.15380    0.50000   1.00
H1       0.44078    1.15380    0.50000   1.00
C3a      0.53528    1.20870    0.50000   1.00
C3a      0.46472    1.20870    0.50000   1.00
H11      0.55964    1.22250    0.50000   1.00
H12      0.44036    1.22250    0.50000   1.00
C4       0.50000    1.22940    0.50000   1.00
C4       0.50000    0.27060    0.50000   1.00
C3a      0.46472    0.29130    0.50000   1.00
C3a      0.53528    0.29130    0.50000   1.00
H13      0.44036    0.27750    0.50000   1.00
H14      0.55964    0.27750    0.50000   1.00
C3a      0.46507    0.33220    0.50000   1.00
C3a      0.53493    0.33220    0.50000   1.00
H1       0.44078    0.34620    0.50000   1.00
H1       0.55922    0.34620    0.50000   1.00
C2       0.50000    0.35280    0.50000   1.00
C2       0.35280    1.00000    0.50000   1.00
C3a      0.33220    1.00000    0.46507   1.00
C3a      0.33220    1.00000    0.53493   1.00
H1       0.34620    1.00000    0.44078   1.00
H1       0.34620    1.00000    0.55922   1.00
C3a      0.29130    1.00000    0.46472   1.00
C3a      0.29130    1.00000    0.53528   1.00
H11      0.27750    1.00000    0.44036   1.00
H12      0.27750    1.00000    0.55964   1.00
C4       0.27060    1.00000    0.50000   1.00
C4       1.22940    1.00000    0.50000   1.00
C3a      1.20870    1.00000    0.53528   1.00
C3a      1.20870    1.00000    0.46472   1.00
H13      1.22250    1.00000    0.55964   1.00
H14      1.22250    1.00000    0.44036   1.00
C3a      1.16780    1.00000    0.53493   1.00
C3a      1.16780    1.00000    0.46507   1.00
H1       1.15380    1.00000    0.55922   1.00
H1       1.15380    1.00000    0.44078   1.00
C2       1.14720    1.00000    0.50000   1.00
C2       0.64720    1.00000    0.50000   1.00
C3a      0.66780    1.00000    0.53493   1.00
C3a      0.66780    1.00000    0.46507   1.00
H1       0.65380    1.00000    0.55922   1.00
H1       0.65380    1.00000    0.44078   1.00
C3a      0.70870    1.00000    0.53528   1.00
C3a      0.70870    1.00000    0.46472   1.00
H11      0.72250    1.00000    0.55964   1.00
H12      0.72250    1.00000    0.44036   1.00
C4       0.72940    1.00000    0.50000   1.00
C4       0.77060    1.00000    0.50000   1.00
C3a      0.79130    1.00000    0.46472   1.00
C3a      0.79130    1.00000    0.53528   1.00
H13      0.77750    1.00000    0.44036   1.00
H14      0.77750    1.00000    0.55964   1.00
C3a      0.83220    1.00000    0.46507   1.00
C3a      0.83220    1.00000    0.53493   1.00
H1       0.84620    1.00000    0.44078   1.00
H1       0.84620    1.00000    0.55922   1.00
C2       0.85280    1.00000    0.50000   1.00
C2       0.50000    0.85280    0.50000   1.00
C3a      0.46507    0.83220    0.50000   1.00
C3a      0.53493    0.83220    0.50000   1.00
H1       0.44078    0.84620    0.50000   1.00
H1       0.55922    0.84620    0.50000   1.00
C3a      0.46472    0.79130    0.50000   1.00
C3a      0.53528    0.79130    0.50000   1.00
H11      0.44036    0.77750    0.50000   1.00
H12      0.55964    0.77750    0.50000   1.00
C4       0.50000    0.77060    0.50000   1.00
C4       0.50000    0.72940    0.50000   1.00
C3a      0.53528    0.70870    0.50000   1.00
C3a      0.46472    0.70870    0.50000   1.00
H13      0.55964    0.72250    0.50000   1.00
H14      0.44036    0.72250    0.50000   1.00
C3a      0.53493    0.66780    0.50000   1.00
C3a      0.46507    0.66780    0.50000   1.00
H1       0.55922    0.65380    0.50000   1.00
H1       0.44078    0.65380    0.50000   1.00
C2       0.50000    0.64720    0.50000   1.00
C2       0.50000    1.00000    0.35280   1.00
C3a      0.50000    0.96507    0.33220   1.00
C3a      0.50000    1.03493    0.33220   1.00
H1       0.50000    0.94078    0.34620   1.00
H1       0.50000    1.05922    0.34620   1.00
C3a      0.50000    0.96472    0.29130   1.00
C3a      0.50000    1.03528    0.29130   1.00
H11      0.50000    0.94036    0.27750   1.00
H12      0.50000    1.05964    0.27750   1.00
C4       0.50000    1.00000    0.27060   1.00
C4       0.50000    1.00000    1.22940   1.00
C3a      0.50000    1.03528    1.20870   1.00
C3a      0.50000    0.96472    1.20870   1.00
H13      0.50000    1.05964    1.22250   1.00
H14      0.50000    0.94036    1.22250   1.00
C3a      0.50000    1.03493    1.16780   1.00
C3a      0.50000    0.96507    1.16780   1.00
H1       0.50000    1.05922    1.15380   1.00
H1       0.50000    0.94078    1.15380   1.00
C2       0.50000    1.00000    1.14720   1.00
C2       1.00000    0.50000    0.64720   1.00
C3a      1.00000    0.53493    0.66780   1.00
C3a      1.00000    0.46507    0.66780   1.00
H1       1.00000    0.55922    0.65380   1.00
H1       1.00000    0.44078    0.65380   1.00
C3a      1.00000    0.53528    0.70870   1.00
C3a      1.00000    0.46472    0.70870   1.00
H11      1.00000    0.55964    0.72250   1.00
H12      1.00000    0.44036    0.72250   1.00
C4       1.00000    0.50000    0.72940   1.00
C4       1.00000    0.50000    0.77060   1.00
C3a      1.00000    0.46472    0.79130   1.00
C3a      1.00000    0.53528    0.79130   1.00
H13      1.00000    0.44036    0.77750   1.00
H14      1.00000    0.55964    0.77750   1.00
C3a      1.00000    0.46507    0.83220   1.00
C3a      1.00000    0.53493    0.83220   1.00
H1       1.00000    0.44078    0.84620   1.00
H1       1.00000    0.55922    0.84620   1.00
C2       1.00000    0.50000    0.85280   1.00
C2       1.00000    0.64720    0.50000   1.00
C3a      1.03493    0.66780    0.50000   1.00
C3a      0.96507    0.66780    0.50000   1.00
H1       1.05922    0.65380    0.50000   1.00
H1       0.94078    0.65380    0.50000   1.00
C3a      1.03528    0.70870    0.50000   1.00
C3a      0.96472    0.70870    0.50000   1.00
H11      1.05964    0.72250    0.50000   1.00
H12      0.94036    0.72250    0.50000   1.00
C4       1.00000    0.72940    0.50000   1.00
C4       1.00000    0.77060    0.50000   1.00
C3a      0.96472    0.79130    0.50000   1.00
C3a      1.03528    0.79130    0.50000   1.00
H13      0.94036    0.77750    0.50000   1.00
H14      1.05964    0.77750    0.50000   1.00
C3a      0.96507    0.83220    0.50000   1.00
C3a      1.03493    0.83220    0.50000   1.00
H1       0.94078    0.84620    0.50000   1.00
H1       1.05922    0.84620    0.50000   1.00
C2       1.00000    0.85280    0.50000   1.00
C2       0.85280    0.50000    0.50000   1.00
C3a      0.83220    0.50000    0.46507   1.00
C3a      0.83220    0.50000    0.53493   1.00
H1       0.84620    0.50000    0.44078   1.00
H1       0.84620    0.50000    0.55922   1.00
C3a      0.79130    0.50000    0.46472   1.00
C3a      0.79130    0.50000    0.53528   1.00
H11      0.77750    0.50000    0.44036   1.00
H12      0.77750    0.50000    0.55964   1.00
C4       0.77060    0.50000    0.50000   1.00
C4       0.72940    0.50000    0.50000   1.00
C3a      0.70870    0.50000    0.53528   1.00
C3a      0.70870    0.50000    0.46472   1.00
H13      0.72250    0.50000    0.55964   1.00
H14      0.72250    0.50000    0.44036   1.00
C3a      0.66780    0.50000    0.53493   1.00
C3a      0.66780    0.50000    0.46507   1.00
H1       0.65380    0.50000    0.55922   1.00
H1       0.65380    0.50000    0.44078   1.00
C2       0.64720    0.50000    0.50000   1.00
C2       1.14720    0.50000    0.50000   1.00
C3a      1.16780    0.50000    0.53493   1.00
C3a      1.16780    0.50000    0.46507   1.00
H1       1.15380    0.50000    0.55922   1.00
H1       1.15380    0.50000    0.44078   1.00
C3a      1.20870    0.50000    0.53528   1.00
C3a      1.20870    0.50000    0.46472   1.00
H11      1.22250    0.50000    0.55964   1.00
H12      1.22250    0.50000    0.44036   1.00
C4       1.22940    0.50000    0.50000   1.00
C4       0.27060    0.50000    0.50000   1.00
C3a      0.29130    0.50000    0.46472   1.00
C3a      0.29130    0.50000    0.53528   1.00
H13      0.27750    0.50000    0.44036   1.00
H14      0.27750    0.50000    0.55964   1.00
C3a      0.33220    0.50000    0.46507   1.00
C3a      0.33220    0.50000    0.53493   1.00
H1       0.34620    0.50000    0.44078   1.00
H1       0.34620    0.50000    0.55922   1.00
C2       0.35280    0.50000    0.50000   1.00
C2       1.00000    0.35280    0.50000   1.00
C3a      0.96507    0.33220    0.50000   1.00
C3a      1.03493    0.33220    0.50000   1.00
H1       0.94078    0.34620    0.50000   1.00
H1       1.05922    0.34620    0.50000   1.00
C3a      0.96472    0.29130    0.50000   1.00
C3a      1.03528    0.29130    0.50000   1.00
H11      0.94036    0.27750    0.50000   1.00
H12      1.05964    0.27750    0.50000   1.00
C4       1.00000    0.27060    0.50000   1.00
C4       1.00000    1.22940    0.50000   1.00
C3a      1.03528    1.20870    0.50000   1.00
C3a      0.96472    1.20870    0.50000   1.00
H13      1.05964    1.22250    0.50000   1.00
H14      0.94036    1.22250    0.50000   1.00
C3a      1.03493    1.16780    0.50000   1.00
C3a      0.96507    1.16780    0.50000   1.00
H1       1.05922    1.15380    0.50000   1.00
H1       0.94078    1.15380    0.50000   1.00
C2       1.00000    1.14720    0.50000   1.00
C2       1.00000    0.50000    0.35280   1.00
C3a      1.00000    0.46507    0.33220   1.00
C3a      1.00000    0.53493    0.33220   1.00
H1       1.00000    0.44078    0.34620   1.00
H1       1.00000    0.55922    0.34620   1.00
C3a      1.00000    0.46472    0.29130   1.00
C3a      1.00000    0.53528    0.29130   1.00
H11      1.00000    0.44036    0.27750   1.00
H12      1.00000    0.55964    0.27750   1.00
C4       1.00000    0.50000    0.27060   1.00
C4       1.00000    0.50000    1.22940   1.00
C3a      1.00000    0.53528    1.20870   1.00
C3a      1.00000    0.46472    1.20870   1.00
H13      1.00000    0.55964    1.22250   1.00
H14      1.00000    0.44036    1.22250   1.00
C3a      1.00000    0.53493    1.16780   1.00
C3a      1.00000    0.46507    1.16780   1.00
H1       1.00000    0.55922    1.15380   1.00
H1       1.00000    0.44078    1.15380   1.00
C2       1.00000    0.50000    1.14720   1.00
