data_IRMOF10_SG202_interpen_Ligand11lp_label_c.

_audit_creation_method             'generated by an auxiliary program of Tobunporous'

_symmetry_space_group_name_H-M     'P 1'
_symmetry_Int_Tables_number        1
_symmetry_cell_setting             triclinic

_cell_length_a                    34.2800
_cell_length_b                    34.2800
_cell_length_c                    34.2800
_cell_angle_alpha                 90.0000
_cell_angle_beta                  90.0000
_cell_angle_gamma                 90.0000

loop_
_atom_site_label
_atom_site_fract_x
_atom_site_fract_y
_atom_site_fract_z
_atom_site_occupancy
O1       0.75000    0.75000    0.75000   1.00
Zn1      0.71720    0.78280    0.78280   1.00
Zn1      0.78280    0.71720    0.78280   1.00
Zn1      0.78280    0.78280    0.71720   1.00
Zn1      0.71720    0.71720    0.71720   1.00
O2       0.72650    0.77350    0.83820   1.00
O2       0.72650    0.83820    0.77350   1.00
O2       0.66180    0.77350    0.77350   1.00
O2       0.77350    0.72650    0.83820   1.00
O2       0.83820    0.72650    0.77350   1.00
O2       0.77350    0.66180    0.77350   1.00
O2       0.77350    0.83820    0.72650   1.00
O2       0.83820    0.77350    0.72650   1.00
O2       0.77350    0.77350    0.66180   1.00
O2       0.66180    0.72650    0.72650   1.00
O2       0.72650    0.66180    0.72650   1.00
O2       0.72650    0.72650    0.66180   1.00
C1       0.75000    0.75000    0.85520   1.00
C1       0.75000    0.85520    0.75000   1.00
C1       0.64480    0.75000    0.75000   1.00
C1       0.85520    0.75000    0.75000   1.00
C1       0.75000    0.64480    0.75000   1.00
C1       0.75000    0.75000    0.64480   1.00
O1       0.25000    0.25000    0.75000   1.00
Zn1      0.21720    0.28280    0.78280   1.00
Zn1      0.28280    0.21720    0.78280   1.00
Zn1      0.28280    0.28280    0.71720   1.00
Zn1      0.21720    0.21720    0.71720   1.00
O2       0.22650    0.27350    0.83820   1.00
O2       0.22650    0.33820    0.77350   1.00
O2       0.16180    0.27350    0.77350   1.00
O2       0.27350    0.22650    0.83820   1.00
O2       0.33820    0.22650    0.77350   1.00
O2       0.27350    0.16180    0.77350   1.00
O2       0.27350    0.33820    0.72650   1.00
O2       0.33820    0.27350    0.72650   1.00
O2       0.27350    0.27350    0.66180   1.00
O2       0.16180    0.22650    0.72650   1.00
O2       0.22650    0.16180    0.72650   1.00
O2       0.22650    0.22650    0.66180   1.00
C1       0.25000    0.25000    0.85520   1.00
C1       0.25000    0.35520    0.75000   1.00
C1       0.14480    0.25000    0.75000   1.00
C1       0.35520    0.25000    0.75000   1.00
C1       0.25000    0.14480    0.75000   1.00
C1       0.25000    0.25000    0.64480   1.00
O1       0.25000    0.75000    0.25000   1.00
Zn1      0.21720    0.78280    0.28280   1.00
Zn1      0.28280    0.71720    0.28280   1.00
Zn1      0.28280    0.78280    0.21720   1.00
Zn1      0.21720    0.71720    0.21720   1.00
O2       0.22650    0.77350    0.33820   1.00
O2       0.22650    0.83820    0.27350   1.00
O2       0.16180    0.77350    0.27350   1.00
O2       0.27350    0.72650    0.33820   1.00
O2       0.33820    0.72650    0.27350   1.00
O2       0.27350    0.66180    0.27350   1.00
O2       0.27350    0.83820    0.22650   1.00
O2       0.33820    0.77350    0.22650   1.00
O2       0.27350    0.77350    0.16180   1.00
O2       0.16180    0.72650    0.22650   1.00
O2       0.22650    0.66180    0.22650   1.00
O2       0.22650    0.72650    0.16180   1.00
C1       0.25000    0.75000    0.35520   1.00
C1       0.25000    0.85520    0.25000   1.00
C1       0.14480    0.75000    0.25000   1.00
C1       0.35520    0.75000    0.25000   1.00
C1       0.25000    0.64480    0.25000   1.00
C1       0.25000    0.75000    0.14480   1.00
O1       0.75000    0.25000    0.25000   1.00
Zn1      0.71720    0.28280    0.28280   1.00
Zn1      0.78280    0.21720    0.28280   1.00
Zn1      0.78280    0.28280    0.21720   1.00
Zn1      0.71720    0.21720    0.21720   1.00
O2       0.72650    0.27350    0.33820   1.00
O2       0.72650    0.33820    0.27350   1.00
O2       0.66180    0.27350    0.27350   1.00
O2       0.77350    0.22650    0.33820   1.00
O2       0.83820    0.22650    0.27350   1.00
O2       0.77350    0.16180    0.27350   1.00
O2       0.77350    0.33820    0.22650   1.00
O2       0.83820    0.27350    0.22650   1.00
O2       0.77350    0.27350    0.16180   1.00
O2       0.66180    0.22650    0.22650   1.00
O2       0.72650    0.16180    0.22650   1.00
O2       0.72650    0.22650    0.16180   1.00
C1       0.75000    0.25000    0.35520   1.00
C1       0.75000    0.35520    0.25000   1.00
C1       0.64480    0.25000    0.25000   1.00
C1       0.85520    0.25000    0.25000   1.00
C1       0.75000    0.14480    0.25000   1.00
C1       0.75000    0.25000    0.14480   1.00
O1       0.25000    0.25000    0.25000   1.00
Zn1      0.28280    0.21720    0.21720   1.00
Zn1      0.21720    0.28280    0.21720   1.00
Zn1      0.21720    0.21720    0.28280   1.00
Zn1      0.28280    0.28280    0.28280   1.00
O2       0.27350    0.22650    0.16180   1.00
O2       0.27350    0.16180    0.22650   1.00
O2       0.33820    0.22650    0.22650   1.00
O2       0.22650    0.27350    0.16180   1.00
O2       0.16180    0.27350    0.22650   1.00
O2       0.22650    0.33820    0.22650   1.00
O2       0.22650    0.16180    0.27350   1.00
O2       0.16180    0.22650    0.27350   1.00
O2       0.22650    0.22650    0.33820   1.00
O2       0.33820    0.27350    0.27350   1.00
O2       0.27350    0.33820    0.27350   1.00
O2       0.27350    0.27350    0.33820   1.00
C1       0.25000    0.25000    0.14480   1.00
C1       0.25000    0.14480    0.25000   1.00
C1       0.35520    0.25000    0.25000   1.00
C1       0.14480    0.25000    0.25000   1.00
C1       0.25000    0.35520    0.25000   1.00
C1       0.25000    0.25000    0.35520   1.00
O1       0.75000    0.75000    0.25000   1.00
Zn1      0.78280    0.71720    0.21720   1.00
Zn1      0.71720    0.78280    0.21720   1.00
Zn1      0.71720    0.71720    0.28280   1.00
Zn1      0.78280    0.78280    0.28280   1.00
O2       0.77350    0.72650    0.16180   1.00
O2       0.77350    0.66180    0.22650   1.00
O2       0.83820    0.72650    0.22650   1.00
O2       0.72650    0.77350    0.16180   1.00
O2       0.66180    0.77350    0.22650   1.00
O2       0.72650    0.83820    0.22650   1.00
O2       0.72650    0.66180    0.27350   1.00
O2       0.66180    0.72650    0.27350   1.00
O2       0.72650    0.72650    0.33820   1.00
O2       0.83820    0.77350    0.27350   1.00
O2       0.77350    0.83820    0.27350   1.00
O2       0.77350    0.77350    0.33820   1.00
C1       0.75000    0.75000    0.14480   1.00
C1       0.75000    0.64480    0.25000   1.00
C1       0.85520    0.75000    0.25000   1.00
C1       0.64480    0.75000    0.25000   1.00
C1       0.75000    0.85520    0.25000   1.00
C1       0.75000    0.75000    0.35520   1.00
O1       0.75000    0.25000    0.75000   1.00
Zn1      0.78280    0.21720    0.71720   1.00
Zn1      0.71720    0.28280    0.71720   1.00
Zn1      0.71720    0.21720    0.78280   1.00
Zn1      0.78280    0.28280    0.78280   1.00
O2       0.77350    0.22650    0.66180   1.00
O2       0.77350    0.16180    0.72650   1.00
O2       0.83820    0.22650    0.72650   1.00
O2       0.72650    0.27350    0.66180   1.00
O2       0.66180    0.27350    0.72650   1.00
O2       0.72650    0.33820    0.72650   1.00
O2       0.72650    0.16180    0.77350   1.00
O2       0.66180    0.22650    0.77350   1.00
O2       0.72650    0.22650    0.83820   1.00
O2       0.83820    0.27350    0.77350   1.00
O2       0.77350    0.33820    0.77350   1.00
O2       0.77350    0.27350    0.83820   1.00
C1       0.75000    0.25000    0.64480   1.00
C1       0.75000    0.14480    0.75000   1.00
C1       0.85520    0.25000    0.75000   1.00
C1       0.64480    0.25000    0.75000   1.00
C1       0.75000    0.35520    0.75000   1.00
C1       0.75000    0.25000    0.85520   1.00
O1       0.25000    0.75000    0.75000   1.00
Zn1      0.28280    0.71720    0.71720   1.00
Zn1      0.21720    0.78280    0.71720   1.00
Zn1      0.21720    0.71720    0.78280   1.00
Zn1      0.28280    0.78280    0.78280   1.00
O2       0.27350    0.72650    0.66180   1.00
O2       0.27350    0.66180    0.72650   1.00
O2       0.33820    0.72650    0.72650   1.00
O2       0.22650    0.77350    0.66180   1.00
O2       0.16180    0.77350    0.72650   1.00
O2       0.22650    0.83820    0.72650   1.00
O2       0.22650    0.66180    0.77350   1.00
O2       0.16180    0.72650    0.77350   1.00
O2       0.22650    0.72650    0.83820   1.00
O2       0.33820    0.77350    0.77350   1.00
O2       0.27350    0.83820    0.77350   1.00
O2       0.27350    0.77350    0.83820   1.00
C1       0.25000    0.75000    0.64480   1.00
C1       0.25000    0.64480    0.75000   1.00
C1       0.35520    0.75000    0.75000   1.00
C1       0.14480    0.75000    0.75000   1.00
C1       0.25000    0.85520    0.75000   1.00
C1       0.25000    0.75000    0.85520   1.00
O1       1.00000    1.00000    1.00000   1.00
Zn1      0.96720    1.03280    1.03280   1.00
Zn1      1.03280    0.96720    1.03280   1.00
Zn1      1.03280    1.03280    0.96720   1.00
Zn1      0.96720    0.96720    0.96720   1.00
O2       0.97650    1.02350    1.08820   1.00
O2       0.97650    1.08820    1.02350   1.00
O2       0.91180    1.02350    1.02350   1.00
O2       1.02350    0.97650    1.08820   1.00
O2       1.08820    0.97650    1.02350   1.00
O2       1.02350    0.91180    1.02350   1.00
O2       1.02350    1.08820    0.97650   1.00
O2       1.08820    1.02350    0.97650   1.00
O2       1.02350    1.02350    0.91180   1.00
O2       0.91180    0.97650    0.97650   1.00
O2       0.97650    0.91180    0.97650   1.00
O2       0.97650    0.97650    0.91180   1.00
C1       1.00000    1.00000    1.10520   1.00
C1       1.00000    1.10520    1.00000   1.00
C1       0.89480    1.00000    1.00000   1.00
C1       1.10520    1.00000    1.00000   1.00
C1       1.00000    0.89480    1.00000   1.00
C1       1.00000    1.00000    0.89480   1.00
O1       0.50000    0.50000    1.00000   1.00
Zn1      0.46720    0.53280    1.03280   1.00
Zn1      0.53280    0.46720    1.03280   1.00
Zn1      0.53280    0.53280    0.96720   1.00
Zn1      0.46720    0.46720    0.96720   1.00
O2       0.47650    0.52350    1.08820   1.00
O2       0.47650    0.58820    1.02350   1.00
O2       0.41180    0.52350    1.02350   1.00
O2       0.52350    0.47650    1.08820   1.00
O2       0.58820    0.47650    1.02350   1.00
O2       0.52350    0.41180    1.02350   1.00
O2       0.52350    0.58820    0.97650   1.00
O2       0.58820    0.52350    0.97650   1.00
O2       0.52350    0.52350    0.91180   1.00
O2       0.41180    0.47650    0.97650   1.00
O2       0.47650    0.41180    0.97650   1.00
O2       0.47650    0.47650    0.91180   1.00
C1       0.50000    0.50000    1.10520   1.00
C1       0.50000    0.60520    1.00000   1.00
C1       0.39480    0.50000    1.00000   1.00
C1       0.60520    0.50000    1.00000   1.00
C1       0.50000    0.39480    1.00000   1.00
C1       0.50000    0.50000    0.89480   1.00
O1       0.50000    1.00000    0.50000   1.00
Zn1      0.46720    1.03280    0.53280   1.00
Zn1      0.53280    0.96720    0.53280   1.00
Zn1      0.53280    1.03280    0.46720   1.00
Zn1      0.46720    0.96720    0.46720   1.00
O2       0.47650    1.02350    0.58820   1.00
O2       0.47650    1.08820    0.52350   1.00
O2       0.41180    1.02350    0.52350   1.00
O2       0.52350    0.97650    0.58820   1.00
O2       0.58820    0.97650    0.52350   1.00
O2       0.52350    0.91180    0.52350   1.00
O2       0.52350    1.08820    0.47650   1.00
O2       0.58820    1.02350    0.47650   1.00
O2       0.52350    1.02350    0.41180   1.00
O2       0.41180    0.97650    0.47650   1.00
O2       0.47650    0.91180    0.47650   1.00
O2       0.47650    0.97650    0.41180   1.00
C1       0.50000    1.00000    0.60520   1.00
C1       0.50000    1.10520    0.50000   1.00
C1       0.39480    1.00000    0.50000   1.00
C1       0.60520    1.00000    0.50000   1.00
C1       0.50000    0.89480    0.50000   1.00
C1       0.50000    1.00000    0.39480   1.00
O1       1.00000    0.50000    0.50000   1.00
Zn1      0.96720    0.53280    0.53280   1.00
Zn1      1.03280    0.46720    0.53280   1.00
Zn1      1.03280    0.53280    0.46720   1.00
Zn1      0.96720    0.46720    0.46720   1.00
O2       0.97650    0.52350    0.58820   1.00
O2       0.97650    0.58820    0.52350   1.00
O2       0.91180    0.52350    0.52350   1.00
O2       1.02350    0.47650    0.58820   1.00
O2       1.08820    0.47650    0.52350   1.00
O2       1.02350    0.41180    0.52350   1.00
O2       1.02350    0.58820    0.47650   1.00
O2       1.08820    0.52350    0.47650   1.00
O2       1.02350    0.52350    0.41180   1.00
O2       0.91180    0.47650    0.47650   1.00
O2       0.97650    0.41180    0.47650   1.00
O2       0.97650    0.47650    0.41180   1.00
C1       1.00000    0.50000    0.60520   1.00
C1       1.00000    0.60520    0.50000   1.00
C1       0.89480    0.50000    0.50000   1.00
C1       1.10520    0.50000    0.50000   1.00
C1       1.00000    0.39480    0.50000   1.00
C1       1.00000    0.50000    0.39480   1.00
O1       0.50000    0.50000    0.50000   1.00
Zn1      0.53280    0.46720    0.46720   1.00
Zn1      0.46720    0.53280    0.46720   1.00
Zn1      0.46720    0.46720    0.53280   1.00
Zn1      0.53280    0.53280    0.53280   1.00
O2       0.52350    0.47650    0.41180   1.00
O2       0.52350    0.41180    0.47650   1.00
O2       0.58820    0.47650    0.47650   1.00
O2       0.47650    0.52350    0.41180   1.00
O2       0.41180    0.52350    0.47650   1.00
O2       0.47650    0.58820    0.47650   1.00
O2       0.47650    0.41180    0.52350   1.00
O2       0.41180    0.47650    0.52350   1.00
O2       0.47650    0.47650    0.58820   1.00
O2       0.58820    0.52350    0.52350   1.00
O2       0.52350    0.58820    0.52350   1.00
O2       0.52350    0.52350    0.58820   1.00
C1       0.50000    0.50000    0.39480   1.00
C1       0.50000    0.39480    0.50000   1.00
C1       0.60520    0.50000    0.50000   1.00
C1       0.39480    0.50000    0.50000   1.00
C1       0.50000    0.60520    0.50000   1.00
C1       0.50000    0.50000    0.60520   1.00
O1       1.00000    1.00000    0.50000   1.00
Zn1      1.03280    0.96720    0.46720   1.00
Zn1      0.96720    1.03280    0.46720   1.00
Zn1      0.96720    0.96720    0.53280   1.00
Zn1      1.03280    1.03280    0.53280   1.00
O2       1.02350    0.97650    0.41180   1.00
O2       1.02350    0.91180    0.47650   1.00
O2       1.08820    0.97650    0.47650   1.00
O2       0.97650    1.02350    0.41180   1.00
O2       0.91180    1.02350    0.47650   1.00
O2       0.97650    1.08820    0.47650   1.00
O2       0.97650    0.91180    0.52350   1.00
O2       0.91180    0.97650    0.52350   1.00
O2       0.97650    0.97650    0.58820   1.00
O2       1.08820    1.02350    0.52350   1.00
O2       1.02350    1.08820    0.52350   1.00
O2       1.02350    1.02350    0.58820   1.00
C1       1.00000    1.00000    0.39480   1.00
C1       1.00000    0.89480    0.50000   1.00
C1       1.10520    1.00000    0.50000   1.00
C1       0.89480    1.00000    0.50000   1.00
C1       1.00000    1.10520    0.50000   1.00
C1       1.00000    1.00000    0.60520   1.00
O1       1.00000    0.50000    1.00000   1.00
Zn1      1.03280    0.46720    0.96720   1.00
Zn1      0.96720    0.53280    0.96720   1.00
Zn1      0.96720    0.46720    1.03280   1.00
Zn1      1.03280    0.53280    1.03280   1.00
O2       1.02350    0.47650    0.91180   1.00
O2       1.02350    0.41180    0.97650   1.00
O2       1.08820    0.47650    0.97650   1.00
O2       0.97650    0.52350    0.91180   1.00
O2       0.91180    0.52350    0.97650   1.00
O2       0.97650    0.58820    0.97650   1.00
O2       0.97650    0.41180    1.02350   1.00
O2       0.91180    0.47650    1.02350   1.00
O2       0.97650    0.47650    1.08820   1.00
O2       1.08820    0.52350    1.02350   1.00
O2       1.02350    0.58820    1.02350   1.00
O2       1.02350    0.52350    1.08820   1.00
C1       1.00000    0.50000    0.89480   1.00
C1       1.00000    0.39480    1.00000   1.00
C1       1.10520    0.50000    1.00000   1.00
C1       0.89480    0.50000    1.00000   1.00
C1       1.00000    0.60520    1.00000   1.00
C1       1.00000    0.50000    1.10520   1.00
O1       0.50000    1.00000    1.00000   1.00
Zn1      0.53280    0.96720    0.96720   1.00
Zn1      0.46720    1.03280    0.96720   1.00
Zn1      0.46720    0.96720    1.03280   1.00
Zn1      0.53280    1.03280    1.03280   1.00
O2       0.52350    0.97650    0.91180   1.00
O2       0.52350    0.91180    0.97650   1.00
O2       0.58820    0.97650    0.97650   1.00
O2       0.47650    1.02350    0.91180   1.00
O2       0.41180    1.02350    0.97650   1.00
O2       0.47650    1.08820    0.97650   1.00
O2       0.47650    0.91180    1.02350   1.00
O2       0.41180    0.97650    1.02350   1.00
O2       0.47650    0.97650    1.08820   1.00
O2       0.58820    1.02350    1.02350   1.00
O2       0.52350    1.08820    1.02350   1.00
O2       0.52350    1.02350    1.08820   1.00
C1       0.50000    1.00000    0.89480   1.00
C1       0.50000    0.89480    1.00000   1.00
C1       0.60520    1.00000    1.00000   1.00
C1       0.39480    1.00000    1.00000   1.00
C1       0.50000    1.10520    1.00000   1.00
C1       0.50000    1.00000    1.10520   1.00
C4       0.75016    0.75012    0.97915   1.00
C4       0.74984    0.74988    1.02085   1.00
C3a      0.75868    0.78466    0.95746   1.00
C3       0.78490    0.74771    1.04232   1.00
C3       0.74212    0.71592    0.95768   1.00
C3a      0.71431    0.75170    1.04254   1.00
C2       0.75005    0.74994    0.89488   1.00
C2       0.75005    0.74993    1.10512   1.00
C3       0.75841    0.78404    0.91595   1.00
C3       0.78496    0.74785    1.08363   1.00
C3       0.74196    0.71591    0.91637   1.00
C3       0.71498    0.75177    1.08405   1.00
C5       0.76758    0.82287    0.97772   1.00
H1       0.81246    0.74629    1.02691   1.00
H1       0.76471    0.81041    0.89979   1.00
H1       0.81250    0.74637    1.09901   1.00
H1       0.73542    0.68912    0.90099   1.00
H1       0.68791    0.75336    1.10021   1.00
C5       0.67515    0.75421    1.02228   1.00
H1       0.73552    0.68913    0.97309   1.00
H2       0.65304    0.76645    1.04256   1.00
H2       0.67677    0.77480    0.99731   1.00
H2       0.76225    0.84758    0.95744   1.00
H2       0.74740    0.82727    1.00269   1.00
N1       0.66251    0.71579    1.00857   1.00
C6       0.65300    0.68516    1.03073   1.00
C6       0.65721    0.70499    0.97154   1.00
C6       0.64198    0.65422    1.00759   1.00
C6       0.64465    0.66684    0.96995   1.00
H3       0.65429    0.68503    1.06197   1.00
H3       0.66244    0.72358    0.94700   1.00
H3       0.63298    0.62568    1.01713   1.00
H3       0.63819    0.65008    0.94425   1.00
N1       0.80801    0.82388    0.99143   1.00
C6       0.81989    0.82584    1.02846   1.00
C6       0.84009    0.82414    0.96927   1.00
C6       0.86004    0.82685    1.03005   1.00
C6       0.87289    0.82576    0.99241   1.00
H3       0.80058    0.82620    1.05300   1.00
H3       0.83984    0.82288    0.93803   1.00
H3       0.87795    0.82820    1.05575   1.00
H3       0.90282    0.82614    0.98287   1.00
C4       0.75012    0.97915    0.75016   1.00
C4       0.74988    1.02085    0.74984   1.00
C3a      0.78466    0.95746    0.75868   1.00
C3       0.74771    1.04232    0.78490   1.00
C3       0.71592    0.95768    0.74212   1.00
C3a      0.75170    1.04254    0.71431   1.00
C2       0.74994    0.89488    0.75005   1.00
C2       0.74993    1.10512    0.75005   1.00
C3       0.78404    0.91595    0.75841   1.00
C3       0.74785    1.08363    0.78496   1.00
C3       0.71591    0.91637    0.74196   1.00
C3       0.75177    1.08405    0.71498   1.00
C5       0.82287    0.97772    0.76758   1.00
H1       0.74629    1.02691    0.81246   1.00
H1       0.81041    0.89979    0.76471   1.00
H1       0.74637    1.09901    0.81250   1.00
H1       0.68912    0.90099    0.73542   1.00
H1       0.75336    1.10021    0.68791   1.00
C5       0.75421    1.02228    0.67515   1.00
H1       0.68913    0.97309    0.73552   1.00
H2       0.76645    1.04256    0.65304   1.00
H2       0.77480    0.99731    0.67677   1.00
H2       0.84758    0.95744    0.76225   1.00
H2       0.82727    1.00269    0.74740   1.00
N1       0.71579    1.00857    0.66251   1.00
C6       0.68516    1.03073    0.65300   1.00
C6       0.70499    0.97154    0.65721   1.00
C6       0.65422    1.00759    0.64198   1.00
C6       0.66684    0.96995    0.64465   1.00
H3       0.68503    1.06197    0.65429   1.00
H3       0.72358    0.94700    0.66244   1.00
H3       0.62568    1.01713    0.63298   1.00
H3       0.65008    0.94425    0.63819   1.00
N1       0.82388    0.99143    0.80801   1.00
C6       0.82584    1.02846    0.81989   1.00
C6       0.82414    0.96927    0.84009   1.00
C6       0.82685    1.03005    0.86004   1.00
C6       0.82576    0.99241    0.87289   1.00
H3       0.82620    1.05300    0.80058   1.00
H3       0.82288    0.93803    0.83984   1.00
H3       0.82820    1.05575    0.87795   1.00
H3       0.82614    0.98287    0.90282   1.00
C4       0.52085    0.75016    0.74988   1.00
C4       0.47915    0.74984    0.75012   1.00
C3a      0.54254    0.75868    0.71534   1.00
C3       0.45768    0.78490    0.75229   1.00
C3       0.54232    0.74212    0.78408   1.00
C3a      0.45746    0.71431    0.74830   1.00
C2       0.60512    0.75005    0.75006   1.00
C2       0.39488    0.75005    0.75007   1.00
C3       0.58405    0.75841    0.71596   1.00
C3       0.41637    0.78496    0.75215   1.00
C3       0.58363    0.74196    0.78409   1.00
C3       0.41595    0.71498    0.74823   1.00
C5       0.52228    0.76758    0.67713   1.00
H1       0.47309    0.81246    0.75371   1.00
H1       0.60021    0.76471    0.68959   1.00
H1       0.40099    0.81250    0.75363   1.00
H1       0.59901    0.73542    0.81088   1.00
H1       0.39979    0.68791    0.74664   1.00
C5       0.47772    0.67515    0.74579   1.00
H1       0.52691    0.73552    0.81087   1.00
H2       0.45744    0.65304    0.73355   1.00
H2       0.50269    0.67677    0.72520   1.00
H2       0.54256    0.76225    0.65242   1.00
H2       0.49731    0.74740    0.67273   1.00
N1       0.49143    0.66251    0.78421   1.00
C6       0.46927    0.65300    0.81484   1.00
C6       0.52846    0.65721    0.79501   1.00
C6       0.49241    0.64198    0.84578   1.00
C6       0.53005    0.64465    0.83316   1.00
H3       0.43803    0.65429    0.81497   1.00
H3       0.55300    0.66244    0.77642   1.00
H3       0.48287    0.63298    0.87432   1.00
H3       0.55575    0.63819    0.84992   1.00
N1       0.50857    0.80801    0.67612   1.00
C6       0.47154    0.81989    0.67416   1.00
C6       0.53073    0.84009    0.67586   1.00
C6       0.46995    0.86004    0.67315   1.00
C6       0.50759    0.87289    0.67424   1.00
H3       0.44700    0.80058    0.67380   1.00
H3       0.56197    0.83984    0.67712   1.00
H3       0.44425    0.87795    0.67180   1.00
H3       0.51713    0.90282    0.67386   1.00
C4       0.97915    0.75016    0.75012   1.00
C4       1.02085    0.74984    0.74988   1.00
C3a      0.95746    0.75868    0.78466   1.00
C3       1.04232    0.78490    0.74771   1.00
C3       0.95768    0.74212    0.71592   1.00
C3a      1.04254    0.71431    0.75170   1.00
C2       0.89488    0.75005    0.74994   1.00
C2       1.10512    0.75005    0.74993   1.00
C3       0.91595    0.75841    0.78404   1.00
C3       1.08363    0.78496    0.74785   1.00
C3       0.91637    0.74196    0.71591   1.00
C3       1.08405    0.71498    0.75177   1.00
C5       0.97772    0.76758    0.82287   1.00
H1       1.02691    0.81246    0.74629   1.00
H1       0.89979    0.76471    0.81041   1.00
H1       1.09901    0.81250    0.74637   1.00
H1       0.90099    0.73542    0.68912   1.00
H1       1.10021    0.68791    0.75336   1.00
C5       1.02228    0.67515    0.75421   1.00
H1       0.97309    0.73552    0.68913   1.00
H2       1.04256    0.65304    0.76645   1.00
H2       0.99731    0.67677    0.77480   1.00
H2       0.95744    0.76225    0.84758   1.00
H2       1.00269    0.74740    0.82727   1.00
N1       1.00857    0.66251    0.71579   1.00
C6       1.03073    0.65300    0.68516   1.00
C6       0.97154    0.65721    0.70499   1.00
C6       1.00759    0.64198    0.65422   1.00
C6       0.96995    0.64465    0.66684   1.00
H3       1.06197    0.65429    0.68503   1.00
H3       0.94700    0.66244    0.72358   1.00
H3       1.01713    0.63298    0.62568   1.00
H3       0.94425    0.63819    0.65008   1.00
N1       0.99143    0.80801    0.82388   1.00
C6       1.02846    0.81989    0.82584   1.00
C6       0.96927    0.84009    0.82414   1.00
C6       1.03005    0.86004    0.82685   1.00
C6       0.99241    0.87289    0.82576   1.00
H3       1.05300    0.80058    0.82620   1.00
H3       0.93803    0.83984    0.82288   1.00
H3       1.05575    0.87795    0.82820   1.00
H3       0.98287    0.90282    0.82614   1.00
C4       0.74988    0.52085    0.75016   1.00
C4       0.75012    0.47915    0.74984   1.00
C3a      0.71534    0.54254    0.75868   1.00
C3       0.75229    0.45768    0.78490   1.00
C3       0.78408    0.54232    0.74212   1.00
C3a      0.74830    0.45746    0.71431   1.00
C2       0.75006    0.60512    0.75005   1.00
C2       0.75007    0.39488    0.75005   1.00
C3       0.71596    0.58405    0.75841   1.00
C3       0.75215    0.41637    0.78496   1.00
C3       0.78409    0.58363    0.74196   1.00
C3       0.74823    0.41595    0.71498   1.00
C5       0.67713    0.52228    0.76758   1.00
H1       0.75371    0.47309    0.81246   1.00
H1       0.68959    0.60021    0.76471   1.00
H1       0.75363    0.40099    0.81250   1.00
H1       0.81088    0.59901    0.73542   1.00
H1       0.74664    0.39979    0.68791   1.00
C5       0.74579    0.47772    0.67515   1.00
H1       0.81087    0.52691    0.73552   1.00
H2       0.73355    0.45744    0.65304   1.00
H2       0.72520    0.50269    0.67677   1.00
H2       0.65242    0.54256    0.76225   1.00
H2       0.67273    0.49731    0.74740   1.00
N1       0.78421    0.49143    0.66251   1.00
C6       0.81484    0.46927    0.65300   1.00
C6       0.79501    0.52846    0.65721   1.00
C6       0.84578    0.49241    0.64198   1.00
C6       0.83316    0.53005    0.64465   1.00
H3       0.81497    0.43803    0.65429   1.00
H3       0.77642    0.55300    0.66244   1.00
H3       0.87432    0.48287    0.63298   1.00
H3       0.84992    0.55575    0.63819   1.00
N1       0.67612    0.50857    0.80801   1.00
C6       0.67416    0.47154    0.81989   1.00
C6       0.67586    0.53073    0.84009   1.00
C6       0.67315    0.46995    0.86004   1.00
C6       0.67424    0.50759    0.87289   1.00
H3       0.67380    0.44700    0.80058   1.00
H3       0.67712    0.56197    0.83984   1.00
H3       0.67180    0.44425    0.87795   1.00
H3       0.67386    0.51713    0.90282   1.00
C4       0.75016    0.74988    0.52085   1.00
C4       0.74984    0.75012    0.47915   1.00
C3a      0.75868    0.71534    0.54254   1.00
C3       0.78490    0.75229    0.45768   1.00
C3       0.74212    0.78408    0.54232   1.00
C3a      0.71431    0.74830    0.45746   1.00
C2       0.75005    0.75006    0.60512   1.00
C2       0.75005    0.75007    0.39488   1.00
C3       0.75841    0.71596    0.58405   1.00
C3       0.78496    0.75215    0.41637   1.00
C3       0.74196    0.78409    0.58363   1.00
C3       0.71498    0.74823    0.41595   1.00
C5       0.76758    0.67713    0.52228   1.00
H1       0.81246    0.75371    0.47309   1.00
H1       0.76471    0.68959    0.60021   1.00
H1       0.81250    0.75363    0.40099   1.00
H1       0.73542    0.81088    0.59901   1.00
H1       0.68791    0.74664    0.39979   1.00
C5       0.67515    0.74579    0.47772   1.00
H1       0.73552    0.81087    0.52691   1.00
H2       0.65304    0.73355    0.45744   1.00
H2       0.67677    0.72520    0.50269   1.00
H2       0.76225    0.65242    0.54256   1.00
H2       0.74740    0.67273    0.49731   1.00
N1       0.66251    0.78421    0.49143   1.00
C6       0.65300    0.81484    0.46927   1.00
C6       0.65721    0.79501    0.52846   1.00
C6       0.64198    0.84578    0.49241   1.00
C6       0.64465    0.83316    0.53005   1.00
H3       0.65429    0.81497    0.43803   1.00
H3       0.66244    0.77642    0.55300   1.00
H3       0.63298    0.87432    0.48287   1.00
H3       0.63819    0.84992    0.55575   1.00
N1       0.80801    0.67612    0.50857   1.00
C6       0.81989    0.67416    0.47154   1.00
C6       0.84009    0.67586    0.53073   1.00
C6       0.86004    0.67315    0.46995   1.00
C6       0.87289    0.67424    0.50759   1.00
H3       0.80058    0.67380    0.44700   1.00
H3       0.83984    0.67712    0.56197   1.00
H3       0.87795    0.67180    0.44425   1.00
H3       0.90282    0.67386    0.51713   1.00
C4       0.25016    0.25012    0.97915   1.00
C4       0.24984    0.24988    1.02085   1.00
C3a      0.25868    0.28466    0.95746   1.00
C3       0.28490    0.24771    1.04232   1.00
C3       0.24212    0.21592    0.95768   1.00
C3a      0.21431    0.25170    1.04254   1.00
C2       0.25005    0.24994    0.89488   1.00
C2       0.25005    0.24993    1.10512   1.00
C3       0.25841    0.28404    0.91595   1.00
C3       0.28496    0.24785    1.08363   1.00
C3       0.24196    0.21591    0.91637   1.00
C3       0.21498    0.25177    1.08405   1.00
C5       0.26758    0.32287    0.97772   1.00
H1       0.31246    0.24629    1.02691   1.00
H1       0.26471    0.31041    0.89979   1.00
H1       0.31250    0.24637    1.09901   1.00
H1       0.23542    0.18912    0.90099   1.00
H1       0.18791    0.25336    1.10021   1.00
C5       0.17515    0.25421    1.02228   1.00
H1       0.23552    0.18913    0.97309   1.00
H2       0.15304    0.26645    1.04256   1.00
H2       0.17677    0.27480    0.99731   1.00
H2       0.26225    0.34758    0.95744   1.00
H2       0.24740    0.32727    1.00269   1.00
N1       0.16251    0.21579    1.00857   1.00
C6       0.15300    0.18516    1.03073   1.00
C6       0.15721    0.20499    0.97154   1.00
C6       0.14198    0.15422    1.00759   1.00
C6       0.14465    0.16684    0.96995   1.00
H3       0.15429    0.18503    1.06197   1.00
H3       0.16244    0.22358    0.94700   1.00
H3       0.13298    0.12568    1.01713   1.00
H3       0.13819    0.15008    0.94425   1.00
N1       0.30801    0.32388    0.99143   1.00
C6       0.31989    0.32584    1.02846   1.00
C6       0.34009    0.32414    0.96927   1.00
C6       0.36004    0.32685    1.03005   1.00
C6       0.37289    0.32576    0.99241   1.00
H3       0.30058    0.32620    1.05300   1.00
H3       0.33984    0.32288    0.93803   1.00
H3       0.37795    0.32820    1.05575   1.00
H3       0.40282    0.32614    0.98287   1.00
C4       0.25012    0.47915    0.75016   1.00
C4       0.24988    0.52085    0.74984   1.00
C3a      0.28466    0.45746    0.75868   1.00
C3       0.24771    0.54232    0.78490   1.00
C3       0.21592    0.45768    0.74212   1.00
C3a      0.25170    0.54254    0.71431   1.00
C2       0.24994    0.39488    0.75005   1.00
C2       0.24993    0.60512    0.75005   1.00
C3       0.28404    0.41595    0.75841   1.00
C3       0.24785    0.58363    0.78496   1.00
C3       0.21591    0.41637    0.74196   1.00
C3       0.25177    0.58405    0.71498   1.00
C5       0.32287    0.47772    0.76758   1.00
H1       0.24629    0.52691    0.81246   1.00
H1       0.31041    0.39979    0.76471   1.00
H1       0.24637    0.59901    0.81250   1.00
H1       0.18912    0.40099    0.73542   1.00
H1       0.25336    0.60021    0.68791   1.00
C5       0.25421    0.52228    0.67515   1.00
H1       0.18913    0.47309    0.73552   1.00
H2       0.26645    0.54256    0.65304   1.00
H2       0.27480    0.49731    0.67677   1.00
H2       0.34758    0.45744    0.76225   1.00
H2       0.32727    0.50269    0.74740   1.00
N1       0.21579    0.50857    0.66251   1.00
C6       0.18516    0.53073    0.65300   1.00
C6       0.20499    0.47154    0.65721   1.00
C6       0.15422    0.50759    0.64198   1.00
C6       0.16684    0.46995    0.64465   1.00
H3       0.18503    0.56197    0.65429   1.00
H3       0.22358    0.44700    0.66244   1.00
H3       0.12568    0.51713    0.63298   1.00
H3       0.15008    0.44425    0.63819   1.00
N1       0.32388    0.49143    0.80801   1.00
C6       0.32584    0.52846    0.81989   1.00
C6       0.32414    0.46927    0.84009   1.00
C6       0.32685    0.53005    0.86004   1.00
C6       0.32576    0.49241    0.87289   1.00
H3       0.32620    0.55300    0.80058   1.00
H3       0.32288    0.43803    0.83984   1.00
H3       0.32820    0.55575    0.87795   1.00
H3       0.32614    0.48287    0.90282   1.00
C4       0.02085    0.25016    0.74988   1.00
C4       -0.02085   0.24984    0.75012   1.00
C3a      0.04254    0.25868    0.71534   1.00
C3       -0.04232   0.28490    0.75229   1.00
C3       0.04232    0.24212    0.78408   1.00
C3a      -0.04254   0.21431    0.74830   1.00
C2       0.10512    0.25005    0.75006   1.00
C2       -0.10512   0.25005    0.75007   1.00
C3       0.08405    0.25841    0.71596   1.00
C3       -0.08363   0.28496    0.75215   1.00
C3       0.08363    0.24196    0.78409   1.00
C3       -0.08405   0.21498    0.74823   1.00
C5       0.02228    0.26758    0.67713   1.00
H1       -0.02691   0.31246    0.75371   1.00
H1       0.10021    0.26471    0.68959   1.00
H1       -0.09901   0.31250    0.75363   1.00
H1       0.09901    0.23542    0.81088   1.00
H1       -0.10021   0.18791    0.74664   1.00
C5       -0.02228   0.17515    0.74579   1.00
H1       0.02691    0.23552    0.81087   1.00
H2       -0.04256   0.15304    0.73355   1.00
H2       0.00269    0.17677    0.72520   1.00
H2       0.04256    0.26225    0.65242   1.00
H2       -0.00269   0.24740    0.67273   1.00
N1       -0.00857   0.16251    0.78421   1.00
C6       -0.03073   0.15300    0.81484   1.00
C6       0.02846    0.15721    0.79501   1.00
C6       -0.00759   0.14198    0.84578   1.00
C6       0.03005    0.14465    0.83316   1.00
H3       -0.06197   0.15429    0.81497   1.00
H3       0.05300    0.16244    0.77642   1.00
H3       -0.01713   0.13298    0.87432   1.00
H3       0.05575    0.13819    0.84992   1.00
N1       0.00857    0.30801    0.67612   1.00
C6       -0.02846   0.31989    0.67416   1.00
C6       0.03073    0.34009    0.67586   1.00
C6       -0.03005   0.36004    0.67315   1.00
C6       0.00759    0.37289    0.67424   1.00
H3       -0.05300   0.30058    0.67380   1.00
H3       0.06197    0.33984    0.67712   1.00
H3       -0.05575   0.37795    0.67180   1.00
H3       0.01713    0.40282    0.67386   1.00
C4       0.47915    0.25016    0.75012   1.00
C4       0.52085    0.24984    0.74988   1.00
C3a      0.45746    0.25868    0.78466   1.00
C3       0.54232    0.28490    0.74771   1.00
C3       0.45768    0.24212    0.71592   1.00
C3a      0.54254    0.21431    0.75170   1.00
C2       0.39488    0.25005    0.74994   1.00
C2       0.60512    0.25005    0.74993   1.00
C3       0.41595    0.25841    0.78404   1.00
C3       0.58363    0.28496    0.74785   1.00
C3       0.41637    0.24196    0.71591   1.00
C3       0.58405    0.21498    0.75177   1.00
C5       0.47772    0.26758    0.82287   1.00
H1       0.52691    0.31246    0.74629   1.00
H1       0.39979    0.26471    0.81041   1.00
H1       0.59901    0.31250    0.74637   1.00
H1       0.40099    0.23542    0.68912   1.00
H1       0.60021    0.18791    0.75336   1.00
C5       0.52228    0.17515    0.75421   1.00
H1       0.47309    0.23552    0.68913   1.00
H2       0.54256    0.15304    0.76645   1.00
H2       0.49731    0.17677    0.77480   1.00
H2       0.45744    0.26225    0.84758   1.00
H2       0.50269    0.24740    0.82727   1.00
N1       0.50857    0.16251    0.71579   1.00
C6       0.53073    0.15300    0.68516   1.00
C6       0.47154    0.15721    0.70499   1.00
C6       0.50759    0.14198    0.65422   1.00
C6       0.46995    0.14465    0.66684   1.00
H3       0.56197    0.15429    0.68503   1.00
H3       0.44700    0.16244    0.72358   1.00
H3       0.51713    0.13298    0.62568   1.00
H3       0.44425    0.13819    0.65008   1.00
N1       0.49143    0.30801    0.82388   1.00
C6       0.52846    0.31989    0.82584   1.00
C6       0.46927    0.34009    0.82414   1.00
C6       0.53005    0.36004    0.82685   1.00
C6       0.49241    0.37289    0.82576   1.00
H3       0.55300    0.30058    0.82620   1.00
H3       0.43803    0.33984    0.82288   1.00
H3       0.55575    0.37795    0.82820   1.00
H3       0.48287    0.40282    0.82614   1.00
C4       0.24988    0.02085    0.75016   1.00
C4       0.25012    -0.02085   0.74984   1.00
C3a      0.21534    0.04254    0.75868   1.00
C3       0.25229    -0.04232   0.78490   1.00
C3       0.28408    0.04232    0.74212   1.00
C3a      0.24830    -0.04254   0.71431   1.00
C2       0.25006    0.10512    0.75005   1.00
C2       0.25007    -0.10512   0.75005   1.00
C3       0.21596    0.08405    0.75841   1.00
C3       0.25215    -0.08363   0.78496   1.00
C3       0.28409    0.08363    0.74196   1.00
C3       0.24823    -0.08405   0.71498   1.00
C5       0.17713    0.02228    0.76758   1.00
H1       0.25371    -0.02691   0.81246   1.00
H1       0.18959    0.10021    0.76471   1.00
H1       0.25363    -0.09901   0.81250   1.00
H1       0.31088    0.09901    0.73542   1.00
H1       0.24664    -0.10021   0.68791   1.00
C5       0.24579    -0.02228   0.67515   1.00
H1       0.31087    0.02691    0.73552   1.00
H2       0.23355    -0.04256   0.65304   1.00
H2       0.22520    0.00269    0.67677   1.00
H2       0.15242    0.04256    0.76225   1.00
H2       0.17273    -0.00269   0.74740   1.00
N1       0.28421    -0.00857   0.66251   1.00
C6       0.31484    -0.03073   0.65300   1.00
C6       0.29501    0.02846    0.65721   1.00
C6       0.34578    -0.00759   0.64198   1.00
C6       0.33316    0.03005    0.64465   1.00
H3       0.31497    -0.06197   0.65429   1.00
H3       0.27642    0.05300    0.66244   1.00
H3       0.37432    -0.01713   0.63298   1.00
H3       0.34992    0.05575    0.63819   1.00
N1       0.17612    0.00857    0.80801   1.00
C6       0.17416    -0.02846   0.81989   1.00
C6       0.17586    0.03073    0.84009   1.00
C6       0.17315    -0.03005   0.86004   1.00
C6       0.17424    0.00759    0.87289   1.00
H3       0.17380    -0.05300   0.80058   1.00
H3       0.17712    0.06197    0.83984   1.00
H3       0.17180    -0.05575   0.87795   1.00
H3       0.17386    0.01713    0.90282   1.00
C4       0.25016    0.24988    0.52085   1.00
C4       0.24984    0.25012    0.47915   1.00
C3a      0.25868    0.21534    0.54254   1.00
C3       0.28490    0.25229    0.45768   1.00
C3       0.24212    0.28408    0.54232   1.00
C3a      0.21431    0.24830    0.45746   1.00
C2       0.25005    0.25006    0.60512   1.00
C2       0.25005    0.25007    0.39488   1.00
C3       0.25841    0.21596    0.58405   1.00
C3       0.28496    0.25215    0.41637   1.00
C3       0.24196    0.28409    0.58363   1.00
C3       0.21498    0.24823    0.41595   1.00
C5       0.26758    0.17713    0.52228   1.00
H1       0.31246    0.25371    0.47309   1.00
H1       0.26471    0.18959    0.60021   1.00
H1       0.31250    0.25363    0.40099   1.00
H1       0.23542    0.31088    0.59901   1.00
H1       0.18791    0.24664    0.39979   1.00
C5       0.17515    0.24579    0.47772   1.00
H1       0.23552    0.31087    0.52691   1.00
H2       0.15304    0.23355    0.45744   1.00
H2       0.17677    0.22520    0.50269   1.00
H2       0.26225    0.15242    0.54256   1.00
H2       0.24740    0.17273    0.49731   1.00
N1       0.16251    0.28421    0.49143   1.00
C6       0.15300    0.31484    0.46927   1.00
C6       0.15721    0.29501    0.52846   1.00
C6       0.14198    0.34578    0.49241   1.00
C6       0.14465    0.33316    0.53005   1.00
H3       0.15429    0.31497    0.43803   1.00
H3       0.16244    0.27642    0.55300   1.00
H3       0.13298    0.37432    0.48287   1.00
H3       0.13819    0.34992    0.55575   1.00
N1       0.30801    0.17612    0.50857   1.00
C6       0.31989    0.17416    0.47154   1.00
C6       0.34009    0.17586    0.53073   1.00
C6       0.36004    0.17315    0.46995   1.00
C6       0.37289    0.17424    0.50759   1.00
H3       0.30058    0.17380    0.44700   1.00
H3       0.33984    0.17712    0.56197   1.00
H3       0.37795    0.17180    0.44425   1.00
H3       0.40282    0.17386    0.51713   1.00
C4       0.25016    0.75012    0.47915   1.00
C4       0.24984    0.74988    0.52085   1.00
C3a      0.25868    0.78466    0.45746   1.00
C3       0.28490    0.74771    0.54232   1.00
C3       0.24212    0.71592    0.45768   1.00
C3a      0.21431    0.75170    0.54254   1.00
C2       0.25005    0.74994    0.39488   1.00
C2       0.25005    0.74993    0.60512   1.00
C3       0.25841    0.78404    0.41595   1.00
C3       0.28496    0.74785    0.58363   1.00
C3       0.24196    0.71591    0.41637   1.00
C3       0.21498    0.75177    0.58405   1.00
C5       0.26758    0.82287    0.47772   1.00
H1       0.31246    0.74629    0.52691   1.00
H1       0.26471    0.81041    0.39979   1.00
H1       0.31250    0.74637    0.59901   1.00
H1       0.23542    0.68912    0.40099   1.00
H1       0.18791    0.75336    0.60021   1.00
C5       0.17515    0.75421    0.52228   1.00
H1       0.23552    0.68913    0.47309   1.00
H2       0.15304    0.76645    0.54256   1.00
H2       0.17677    0.77480    0.49731   1.00
H2       0.26225    0.84758    0.45744   1.00
H2       0.24740    0.82727    0.50269   1.00
N1       0.16251    0.71579    0.50857   1.00
C6       0.15300    0.68516    0.53073   1.00
C6       0.15721    0.70499    0.47154   1.00
C6       0.14198    0.65422    0.50759   1.00
C6       0.14465    0.66684    0.46995   1.00
H3       0.15429    0.68503    0.56197   1.00
H3       0.16244    0.72358    0.44700   1.00
H3       0.13298    0.62568    0.51713   1.00
H3       0.13819    0.65008    0.44425   1.00
N1       0.30801    0.82388    0.49143   1.00
C6       0.31989    0.82584    0.52846   1.00
C6       0.34009    0.82414    0.46927   1.00
C6       0.36004    0.82685    0.53005   1.00
C6       0.37289    0.82576    0.49241   1.00
H3       0.30058    0.82620    0.55300   1.00
H3       0.33984    0.82288    0.43803   1.00
H3       0.37795    0.82820    0.55575   1.00
H3       0.40282    0.82614    0.48287   1.00
C4       0.25012    0.97915    0.25016   1.00
C4       0.24988    1.02085    0.24984   1.00
C3a      0.28466    0.95746    0.25868   1.00
C3       0.24771    1.04232    0.28490   1.00
C3       0.21592    0.95768    0.24212   1.00
C3a      0.25170    1.04254    0.21431   1.00
C2       0.24994    0.89488    0.25005   1.00
C2       0.24993    1.10512    0.25005   1.00
C3       0.28404    0.91595    0.25841   1.00
C3       0.24785    1.08363    0.28496   1.00
C3       0.21591    0.91637    0.24196   1.00
C3       0.25177    1.08405    0.21498   1.00
C5       0.32287    0.97772    0.26758   1.00
H1       0.24629    1.02691    0.31246   1.00
H1       0.31041    0.89979    0.26471   1.00
H1       0.24637    1.09901    0.31250   1.00
H1       0.18912    0.90099    0.23542   1.00
H1       0.25336    1.10021    0.18791   1.00
C5       0.25421    1.02228    0.17515   1.00
H1       0.18913    0.97309    0.23552   1.00
H2       0.26645    1.04256    0.15304   1.00
H2       0.27480    0.99731    0.17677   1.00
H2       0.34758    0.95744    0.26225   1.00
H2       0.32727    1.00269    0.24740   1.00
N1       0.21579    1.00857    0.16251   1.00
C6       0.18516    1.03073    0.15300   1.00
C6       0.20499    0.97154    0.15721   1.00
C6       0.15422    1.00759    0.14198   1.00
C6       0.16684    0.96995    0.14465   1.00
H3       0.18503    1.06197    0.15429   1.00
H3       0.22358    0.94700    0.16244   1.00
H3       0.12568    1.01713    0.13298   1.00
H3       0.15008    0.94425    0.13819   1.00
N1       0.32388    0.99143    0.30801   1.00
C6       0.32584    1.02846    0.31989   1.00
C6       0.32414    0.96927    0.34009   1.00
C6       0.32685    1.03005    0.36004   1.00
C6       0.32576    0.99241    0.37289   1.00
H3       0.32620    1.05300    0.30058   1.00
H3       0.32288    0.93803    0.33984   1.00
H3       0.32820    1.05575    0.37795   1.00
H3       0.32614    0.98287    0.40282   1.00
C4       0.02085    0.75016    0.24988   1.00
C4       -0.02085   0.74984    0.25012   1.00
C3a      0.04254    0.75868    0.21534   1.00
C3       -0.04232   0.78490    0.25229   1.00
C3       0.04232    0.74212    0.28408   1.00
C3a      -0.04254   0.71431    0.24830   1.00
C2       0.10512    0.75005    0.25006   1.00
C2       -0.10512   0.75005    0.25007   1.00
C3       0.08405    0.75841    0.21596   1.00
C3       -0.08363   0.78496    0.25215   1.00
C3       0.08363    0.74196    0.28409   1.00
C3       -0.08405   0.71498    0.24823   1.00
C5       0.02228    0.76758    0.17713   1.00
H1       -0.02691   0.81246    0.25371   1.00
H1       0.10021    0.76471    0.18959   1.00
H1       -0.09901   0.81250    0.25363   1.00
H1       0.09901    0.73542    0.31088   1.00
H1       -0.10021   0.68791    0.24664   1.00
C5       -0.02228   0.67515    0.24579   1.00
H1       0.02691    0.73552    0.31087   1.00
H2       -0.04256   0.65304    0.23355   1.00
H2       0.00269    0.67677    0.22520   1.00
H2       0.04256    0.76225    0.15242   1.00
H2       -0.00269   0.74740    0.17273   1.00
N1       -0.00857   0.66251    0.28421   1.00
C6       -0.03073   0.65300    0.31484   1.00
C6       0.02846    0.65721    0.29501   1.00
C6       -0.00759   0.64198    0.34578   1.00
C6       0.03005    0.64465    0.33316   1.00
H3       -0.06197   0.65429    0.31497   1.00
H3       0.05300    0.66244    0.27642   1.00
H3       -0.01713   0.63298    0.37432   1.00
H3       0.05575    0.63819    0.34992   1.00
N1       0.00857    0.80801    0.17612   1.00
C6       -0.02846   0.81989    0.17416   1.00
C6       0.03073    0.84009    0.17586   1.00
C6       -0.03005   0.86004    0.17315   1.00
C6       0.00759    0.87289    0.17424   1.00
H3       -0.05300   0.80058    0.17380   1.00
H3       0.06197    0.83984    0.17712   1.00
H3       -0.05575   0.87795    0.17180   1.00
H3       0.01713    0.90282    0.17386   1.00
C4       0.47915    0.75016    0.25012   1.00
C4       0.52085    0.74984    0.24988   1.00
C3a      0.45746    0.75868    0.28466   1.00
C3       0.54232    0.78490    0.24771   1.00
C3       0.45768    0.74212    0.21592   1.00
C3a      0.54254    0.71431    0.25170   1.00
C2       0.39488    0.75005    0.24994   1.00
C2       0.60512    0.75005    0.24993   1.00
C3       0.41595    0.75841    0.28404   1.00
C3       0.58363    0.78496    0.24785   1.00
C3       0.41637    0.74196    0.21591   1.00
C3       0.58405    0.71498    0.25177   1.00
C5       0.47772    0.76758    0.32287   1.00
H1       0.52691    0.81246    0.24629   1.00
H1       0.39979    0.76471    0.31041   1.00
H1       0.59901    0.81250    0.24637   1.00
H1       0.40099    0.73542    0.18912   1.00
H1       0.60021    0.68791    0.25336   1.00
C5       0.52228    0.67515    0.25421   1.00
H1       0.47309    0.73552    0.18913   1.00
H2       0.54256    0.65304    0.26645   1.00
H2       0.49731    0.67677    0.27480   1.00
H2       0.45744    0.76225    0.34758   1.00
H2       0.50269    0.74740    0.32727   1.00
N1       0.50857    0.66251    0.21579   1.00
C6       0.53073    0.65300    0.18516   1.00
C6       0.47154    0.65721    0.20499   1.00
C6       0.50759    0.64198    0.15422   1.00
C6       0.46995    0.64465    0.16684   1.00
H3       0.56197    0.65429    0.18503   1.00
H3       0.44700    0.66244    0.22358   1.00
H3       0.51713    0.63298    0.12568   1.00
H3       0.44425    0.63819    0.15008   1.00
N1       0.49143    0.80801    0.32388   1.00
C6       0.52846    0.81989    0.32584   1.00
C6       0.46927    0.84009    0.32414   1.00
C6       0.53005    0.86004    0.32685   1.00
C6       0.49241    0.87289    0.32576   1.00
H3       0.55300    0.80058    0.32620   1.00
H3       0.43803    0.83984    0.32288   1.00
H3       0.55575    0.87795    0.32820   1.00
H3       0.48287    0.90282    0.32614   1.00
C4       0.24988    0.52085    0.25016   1.00
C4       0.25012    0.47915    0.24984   1.00
C3a      0.21534    0.54254    0.25868   1.00
C3       0.25229    0.45768    0.28490   1.00
C3       0.28408    0.54232    0.24212   1.00
C3a      0.24830    0.45746    0.21431   1.00
C2       0.25006    0.60512    0.25005   1.00
C2       0.25007    0.39488    0.25005   1.00
C3       0.21596    0.58405    0.25841   1.00
C3       0.25215    0.41637    0.28496   1.00
C3       0.28409    0.58363    0.24196   1.00
C3       0.24823    0.41595    0.21498   1.00
C5       0.17713    0.52228    0.26758   1.00
H1       0.25371    0.47309    0.31246   1.00
H1       0.18959    0.60021    0.26471   1.00
H1       0.25363    0.40099    0.31250   1.00
H1       0.31088    0.59901    0.23542   1.00
H1       0.24664    0.39979    0.18791   1.00
C5       0.24579    0.47772    0.17515   1.00
H1       0.31087    0.52691    0.23552   1.00
H2       0.23355    0.45744    0.15304   1.00
H2       0.22520    0.50269    0.17677   1.00
H2       0.15242    0.54256    0.26225   1.00
H2       0.17273    0.49731    0.24740   1.00
N1       0.28421    0.49143    0.16251   1.00
C6       0.31484    0.46927    0.15300   1.00
C6       0.29501    0.52846    0.15721   1.00
C6       0.34578    0.49241    0.14198   1.00
C6       0.33316    0.53005    0.14465   1.00
H3       0.31497    0.43803    0.15429   1.00
H3       0.27642    0.55300    0.16244   1.00
H3       0.37432    0.48287    0.13298   1.00
H3       0.34992    0.55575    0.13819   1.00
N1       0.17612    0.50857    0.30801   1.00
C6       0.17416    0.47154    0.31989   1.00
C6       0.17586    0.53073    0.34009   1.00
C6       0.17315    0.46995    0.36004   1.00
C6       0.17424    0.50759    0.37289   1.00
H3       0.17380    0.44700    0.30058   1.00
H3       0.17712    0.56197    0.33984   1.00
H3       0.17180    0.44425    0.37795   1.00
H3       0.17386    0.51713    0.40282   1.00
C4       0.25016    0.74988    0.02085   1.00
C4       0.24984    0.75012    -0.02085   1.00
C3a      0.25868    0.71534    0.04254   1.00
C3       0.28490    0.75229    -0.04232   1.00
C3       0.24212    0.78408    0.04232   1.00
C3a      0.21431    0.74830    -0.04254   1.00
C2       0.25005    0.75006    0.10512   1.00
C2       0.25005    0.75007    -0.10512   1.00
C3       0.25841    0.71596    0.08405   1.00
C3       0.28496    0.75215    -0.08363   1.00
C3       0.24196    0.78409    0.08363   1.00
C3       0.21498    0.74823    -0.08405   1.00
C5       0.26758    0.67713    0.02228   1.00
H1       0.31246    0.75371    -0.02691   1.00
H1       0.26471    0.68959    0.10021   1.00
H1       0.31250    0.75363    -0.09901   1.00
H1       0.23542    0.81088    0.09901   1.00
H1       0.18791    0.74664    -0.10021   1.00
C5       0.17515    0.74579    -0.02228   1.00
H1       0.23552    0.81087    0.02691   1.00
H2       0.15304    0.73355    -0.04256   1.00
H2       0.17677    0.72520    0.00269   1.00
H2       0.26225    0.65242    0.04256   1.00
H2       0.24740    0.67273    -0.00269   1.00
N1       0.16251    0.78421    -0.00857   1.00
C6       0.15300    0.81484    -0.03073   1.00
C6       0.15721    0.79501    0.02846   1.00
C6       0.14198    0.84578    -0.00759   1.00
C6       0.14465    0.83316    0.03005   1.00
H3       0.15429    0.81497    -0.06197   1.00
H3       0.16244    0.77642    0.05300   1.00
H3       0.13298    0.87432    -0.01713   1.00
H3       0.13819    0.84992    0.05575   1.00
N1       0.30801    0.67612    0.00857   1.00
C6       0.31989    0.67416    -0.02846   1.00
C6       0.34009    0.67586    0.03073   1.00
C6       0.36004    0.67315    -0.03005   1.00
C6       0.37289    0.67424    0.00759   1.00
H3       0.30058    0.67380    -0.05300   1.00
H3       0.33984    0.67712    0.06197   1.00
H3       0.37795    0.67180    -0.05575   1.00
H3       0.40282    0.67386    0.01713   1.00
C4       0.75016    0.25012    0.47915   1.00
C4       0.74984    0.24988    0.52085   1.00
C3a      0.75868    0.28466    0.45746   1.00
C3       0.78490    0.24771    0.54232   1.00
C3       0.74212    0.21592    0.45768   1.00
C3a      0.71431    0.25170    0.54254   1.00
C2       0.75005    0.24994    0.39488   1.00
C2       0.75005    0.24993    0.60512   1.00
C3       0.75841    0.28404    0.41595   1.00
C3       0.78496    0.24785    0.58363   1.00
C3       0.74196    0.21591    0.41637   1.00
C3       0.71498    0.25177    0.58405   1.00
C5       0.76758    0.32287    0.47772   1.00
H1       0.81246    0.24629    0.52691   1.00
H1       0.76471    0.31041    0.39979   1.00
H1       0.81250    0.24637    0.59901   1.00
H1       0.73542    0.18912    0.40099   1.00
H1       0.68791    0.25336    0.60021   1.00
C5       0.67515    0.25421    0.52228   1.00
H1       0.73552    0.18913    0.47309   1.00
H2       0.65304    0.26645    0.54256   1.00
H2       0.67677    0.27480    0.49731   1.00
H2       0.76225    0.34758    0.45744   1.00
H2       0.74740    0.32727    0.50269   1.00
N1       0.66251    0.21579    0.50857   1.00
C6       0.65300    0.18516    0.53073   1.00
C6       0.65721    0.20499    0.47154   1.00
C6       0.64198    0.15422    0.50759   1.00
C6       0.64465    0.16684    0.46995   1.00
H3       0.65429    0.18503    0.56197   1.00
H3       0.66244    0.22358    0.44700   1.00
H3       0.63298    0.12568    0.51713   1.00
H3       0.63819    0.15008    0.44425   1.00
N1       0.80801    0.32388    0.49143   1.00
C6       0.81989    0.32584    0.52846   1.00
C6       0.84009    0.32414    0.46927   1.00
C6       0.86004    0.32685    0.53005   1.00
C6       0.87289    0.32576    0.49241   1.00
H3       0.80058    0.32620    0.55300   1.00
H3       0.83984    0.32288    0.43803   1.00
H3       0.87795    0.32820    0.55575   1.00
H3       0.90282    0.32614    0.48287   1.00
C4       0.75012    0.47915    0.25016   1.00
C4       0.74988    0.52085    0.24984   1.00
C3a      0.78466    0.45746    0.25868   1.00
C3       0.74771    0.54232    0.28490   1.00
C3       0.71592    0.45768    0.24212   1.00
C3a      0.75170    0.54254    0.21431   1.00
C2       0.74994    0.39488    0.25005   1.00
C2       0.74993    0.60512    0.25005   1.00
C3       0.78404    0.41595    0.25841   1.00
C3       0.74785    0.58363    0.28496   1.00
C3       0.71591    0.41637    0.24196   1.00
C3       0.75177    0.58405    0.21498   1.00
C5       0.82287    0.47772    0.26758   1.00
H1       0.74629    0.52691    0.31246   1.00
H1       0.81041    0.39979    0.26471   1.00
H1       0.74637    0.59901    0.31250   1.00
H1       0.68912    0.40099    0.23542   1.00
H1       0.75336    0.60021    0.18791   1.00
C5       0.75421    0.52228    0.17515   1.00
H1       0.68913    0.47309    0.23552   1.00
H2       0.76645    0.54256    0.15304   1.00
H2       0.77480    0.49731    0.17677   1.00
H2       0.84758    0.45744    0.26225   1.00
H2       0.82727    0.50269    0.24740   1.00
N1       0.71579    0.50857    0.16251   1.00
C6       0.68516    0.53073    0.15300   1.00
C6       0.70499    0.47154    0.15721   1.00
C6       0.65422    0.50759    0.14198   1.00
C6       0.66684    0.46995    0.14465   1.00
H3       0.68503    0.56197    0.15429   1.00
H3       0.72358    0.44700    0.16244   1.00
H3       0.62568    0.51713    0.13298   1.00
H3       0.65008    0.44425    0.13819   1.00
N1       0.82388    0.49143    0.30801   1.00
C6       0.82584    0.52846    0.31989   1.00
C6       0.82414    0.46927    0.34009   1.00
C6       0.82685    0.53005    0.36004   1.00
C6       0.82576    0.49241    0.37289   1.00
H3       0.82620    0.55300    0.30058   1.00
H3       0.82288    0.43803    0.33984   1.00
H3       0.82820    0.55575    0.37795   1.00
H3       0.82614    0.48287    0.40282   1.00
C4       0.52085    0.25016    0.24988   1.00
C4       0.47915    0.24984    0.25012   1.00
C3a      0.54254    0.25868    0.21534   1.00
C3       0.45768    0.28490    0.25229   1.00
C3       0.54232    0.24212    0.28408   1.00
C3a      0.45746    0.21431    0.24830   1.00
C2       0.60512    0.25005    0.25006   1.00
C2       0.39488    0.25005    0.25007   1.00
C3       0.58405    0.25841    0.21596   1.00
C3       0.41637    0.28496    0.25215   1.00
C3       0.58363    0.24196    0.28409   1.00
C3       0.41595    0.21498    0.24823   1.00
C5       0.52228    0.26758    0.17713   1.00
H1       0.47309    0.31246    0.25371   1.00
H1       0.60021    0.26471    0.18959   1.00
H1       0.40099    0.31250    0.25363   1.00
H1       0.59901    0.23542    0.31088   1.00
H1       0.39979    0.18791    0.24664   1.00
C5       0.47772    0.17515    0.24579   1.00
H1       0.52691    0.23552    0.31087   1.00
H2       0.45744    0.15304    0.23355   1.00
H2       0.50269    0.17677    0.22520   1.00
H2       0.54256    0.26225    0.15242   1.00
H2       0.49731    0.24740    0.17273   1.00
N1       0.49143    0.16251    0.28421   1.00
C6       0.46927    0.15300    0.31484   1.00
C6       0.52846    0.15721    0.29501   1.00
C6       0.49241    0.14198    0.34578   1.00
C6       0.53005    0.14465    0.33316   1.00
H3       0.43803    0.15429    0.31497   1.00
H3       0.55300    0.16244    0.27642   1.00
H3       0.48287    0.13298    0.37432   1.00
H3       0.55575    0.13819    0.34992   1.00
N1       0.50857    0.30801    0.17612   1.00
C6       0.47154    0.31989    0.17416   1.00
C6       0.53073    0.34009    0.17586   1.00
C6       0.46995    0.36004    0.17315   1.00
C6       0.50759    0.37289    0.17424   1.00
H3       0.44700    0.30058    0.17380   1.00
H3       0.56197    0.33984    0.17712   1.00
H3       0.44425    0.37795    0.17180   1.00
H3       0.51713    0.40282    0.17386   1.00
C4       0.97915    0.25016    0.25012   1.00
C4       1.02085    0.24984    0.24988   1.00
C3a      0.95746    0.25868    0.28466   1.00
C3       1.04232    0.28490    0.24771   1.00
C3       0.95768    0.24212    0.21592   1.00
C3a      1.04254    0.21431    0.25170   1.00
C2       0.89488    0.25005    0.24994   1.00
C2       1.10512    0.25005    0.24993   1.00
C3       0.91595    0.25841    0.28404   1.00
C3       1.08363    0.28496    0.24785   1.00
C3       0.91637    0.24196    0.21591   1.00
C3       1.08405    0.21498    0.25177   1.00
C5       0.97772    0.26758    0.32287   1.00
H1       1.02691    0.31246    0.24629   1.00
H1       0.89979    0.26471    0.31041   1.00
H1       1.09901    0.31250    0.24637   1.00
H1       0.90099    0.23542    0.18912   1.00
H1       1.10021    0.18791    0.25336   1.00
C5       1.02228    0.17515    0.25421   1.00
H1       0.97309    0.23552    0.18913   1.00
H2       1.04256    0.15304    0.26645   1.00
H2       0.99731    0.17677    0.27480   1.00
H2       0.95744    0.26225    0.34758   1.00
H2       1.00269    0.24740    0.32727   1.00
N1       1.00857    0.16251    0.21579   1.00
C6       1.03073    0.15300    0.18516   1.00
C6       0.97154    0.15721    0.20499   1.00
C6       1.00759    0.14198    0.15422   1.00
C6       0.96995    0.14465    0.16684   1.00
H3       1.06197    0.15429    0.18503   1.00
H3       0.94700    0.16244    0.22358   1.00
H3       1.01713    0.13298    0.12568   1.00
H3       0.94425    0.13819    0.15008   1.00
N1       0.99143    0.30801    0.32388   1.00
C6       1.02846    0.31989    0.32584   1.00
C6       0.96927    0.34009    0.32414   1.00
C6       1.03005    0.36004    0.32685   1.00
C6       0.99241    0.37289    0.32576   1.00
H3       1.05300    0.30058    0.32620   1.00
H3       0.93803    0.33984    0.32288   1.00
H3       1.05575    0.37795    0.32820   1.00
H3       0.98287    0.40282    0.32614   1.00
C4       0.74988    0.02085    0.25016   1.00
C4       0.75012    -0.02085   0.24984   1.00
C3a      0.71534    0.04254    0.25868   1.00
C3       0.75229    -0.04232   0.28490   1.00
C3       0.78408    0.04232    0.24212   1.00
C3a      0.74830    -0.04254   0.21431   1.00
C2       0.75006    0.10512    0.25005   1.00
C2       0.75007    -0.10512   0.25005   1.00
C3       0.71596    0.08405    0.25841   1.00
C3       0.75215    -0.08363   0.28496   1.00
C3       0.78409    0.08363    0.24196   1.00
C3       0.74823    -0.08405   0.21498   1.00
C5       0.67713    0.02228    0.26758   1.00
H1       0.75371    -0.02691   0.31246   1.00
H1       0.68959    0.10021    0.26471   1.00
H1       0.75363    -0.09901   0.31250   1.00
H1       0.81088    0.09901    0.23542   1.00
H1       0.74664    -0.10021   0.18791   1.00
C5       0.74579    -0.02228   0.17515   1.00
H1       0.81087    0.02691    0.23552   1.00
H2       0.73355    -0.04256   0.15304   1.00
H2       0.72520    0.00269    0.17677   1.00
H2       0.65242    0.04256    0.26225   1.00
H2       0.67273    -0.00269   0.24740   1.00
N1       0.78421    -0.00857   0.16251   1.00
C6       0.81484    -0.03073   0.15300   1.00
C6       0.79501    0.02846    0.15721   1.00
C6       0.84578    -0.00759   0.14198   1.00
C6       0.83316    0.03005    0.14465   1.00
H3       0.81497    -0.06197   0.15429   1.00
H3       0.77642    0.05300    0.16244   1.00
H3       0.87432    -0.01713   0.13298   1.00
H3       0.84992    0.05575    0.13819   1.00
N1       0.67612    0.00857    0.30801   1.00
C6       0.67416    -0.02846   0.31989   1.00
C6       0.67586    0.03073    0.34009   1.00
C6       0.67315    -0.03005   0.36004   1.00
C6       0.67424    0.00759    0.37289   1.00
H3       0.67380    -0.05300   0.30058   1.00
H3       0.67712    0.06197    0.33984   1.00
H3       0.67180    -0.05575   0.37795   1.00
H3       0.67386    0.01713    0.40282   1.00
C4       0.75016    0.24988    0.02085   1.00
C4       0.74984    0.25012    -0.02085   1.00
C3a      0.75868    0.21534    0.04254   1.00
C3       0.78490    0.25229    -0.04232   1.00
C3       0.74212    0.28408    0.04232   1.00
C3a      0.71431    0.24830    -0.04254   1.00
C2       0.75005    0.25006    0.10512   1.00
C2       0.75005    0.25007    -0.10512   1.00
C3       0.75841    0.21596    0.08405   1.00
C3       0.78496    0.25215    -0.08363   1.00
C3       0.74196    0.28409    0.08363   1.00
C3       0.71498    0.24823    -0.08405   1.00
C5       0.76758    0.17713    0.02228   1.00
H1       0.81246    0.25371    -0.02691   1.00
H1       0.76471    0.18959    0.10021   1.00
H1       0.81250    0.25363    -0.09901   1.00
H1       0.73542    0.31088    0.09901   1.00
H1       0.68791    0.24664    -0.10021   1.00
C5       0.67515    0.24579    -0.02228   1.00
H1       0.73552    0.31087    0.02691   1.00
H2       0.65304    0.23355    -0.04256   1.00
H2       0.67677    0.22520    0.00269   1.00
H2       0.76225    0.15242    0.04256   1.00
H2       0.74740    0.17273    -0.00269   1.00
N1       0.66251    0.28421    -0.00857   1.00
C6       0.65300    0.31484    -0.03073   1.00
C6       0.65721    0.29501    0.02846   1.00
C6       0.64198    0.34578    -0.00759   1.00
C6       0.64465    0.33316    0.03005   1.00
H3       0.65429    0.31497    -0.06197   1.00
H3       0.66244    0.27642    0.05300   1.00
H3       0.63298    0.37432    -0.01713   1.00
H3       0.63819    0.34992    0.05575   1.00
N1       0.80801    0.17612    0.00857   1.00
C6       0.81989    0.17416    -0.02846   1.00
C6       0.84009    0.17586    0.03073   1.00
C6       0.86004    0.17315    -0.03005   1.00
C6       0.87289    0.17424    0.00759   1.00
H3       0.80058    0.17380    -0.05300   1.00
H3       0.83984    0.17712    0.06197   1.00
H3       0.87795    0.17180    -0.05575   1.00
H3       0.90282    0.17386    0.01713   1.00
C4       1.00016    1.00012    1.22915   1.00
C4       0.99984    0.99988    1.27085   1.00
C3a      1.00868    1.03466    1.20746   1.00
C3       1.03490    0.99771    1.29232   1.00
C3       0.99212    0.96592    1.20768   1.00
C3a      0.96431    1.00170    1.29254   1.00
C2       1.00005    0.99994    1.14488   1.00
C2       1.00005    0.99993    1.35512   1.00
C3       1.00841    1.03404    1.16595   1.00
C3       1.03496    0.99785    1.33363   1.00
C3       0.99196    0.96591    1.16637   1.00
C3       0.96498    1.00177    1.33405   1.00
C5       1.01758    1.07287    1.22772   1.00
H1       1.06246    0.99629    1.27691   1.00
H1       1.01471    1.06041    1.14979   1.00
H1       1.06250    0.99637    1.34901   1.00
H1       0.98542    0.93912    1.15099   1.00
H1       0.93791    1.00336    1.35021   1.00
C5       0.92515    1.00421    1.27228   1.00
H1       0.98552    0.93913    1.22309   1.00
H2       0.90304    1.01645    1.29256   1.00
H2       0.92677    1.02480    1.24731   1.00
H2       1.01225    1.09758    1.20744   1.00
H2       0.99740    1.07727    1.25269   1.00
N1       0.91251    0.96579    1.25857   1.00
C6       0.90300    0.93516    1.28073   1.00
C6       0.90721    0.95499    1.22154   1.00
C6       0.89198    0.90422    1.25759   1.00
C6       0.89465    0.91684    1.21995   1.00
H3       0.90429    0.93503    1.31197   1.00
H3       0.91244    0.97358    1.19700   1.00
H3       0.88298    0.87568    1.26713   1.00
H3       0.88819    0.90008    1.19425   1.00
N1       1.05801    1.07388    1.24143   1.00
C6       1.06989    1.07584    1.27846   1.00
C6       1.09009    1.07414    1.21927   1.00
C6       1.11004    1.07685    1.28005   1.00
C6       1.12289    1.07576    1.24241   1.00
H3       1.05058    1.07620    1.30300   1.00
H3       1.08984    1.07288    1.18803   1.00
H3       1.12795    1.07820    1.30575   1.00
H3       1.15282    1.07614    1.23287   1.00
C4       1.00012    1.22915    1.00016   1.00
C4       0.99988    1.27085    0.99984   1.00
C3a      1.03466    1.20746    1.00868   1.00
C3       0.99771    1.29232    1.03490   1.00
C3       0.96592    1.20768    0.99212   1.00
C3a      1.00170    1.29254    0.96431   1.00
C2       0.99994    1.14488    1.00005   1.00
C2       0.99993    1.35512    1.00005   1.00
C3       1.03404    1.16595    1.00841   1.00
C3       0.99785    1.33363    1.03496   1.00
C3       0.96591    1.16637    0.99196   1.00
C3       1.00177    1.33405    0.96498   1.00
C5       1.07287    1.22772    1.01758   1.00
H1       0.99629    1.27691    1.06246   1.00
H1       1.06041    1.14979    1.01471   1.00
H1       0.99637    1.34901    1.06250   1.00
H1       0.93912    1.15099    0.98542   1.00
H1       1.00336    1.35021    0.93791   1.00
C5       1.00421    1.27228    0.92515   1.00
H1       0.93913    1.22309    0.98552   1.00
H2       1.01645    1.29256    0.90304   1.00
H2       1.02480    1.24731    0.92677   1.00
H2       1.09758    1.20744    1.01225   1.00
H2       1.07727    1.25269    0.99740   1.00
N1       0.96579    1.25857    0.91251   1.00
C6       0.93516    1.28073    0.90300   1.00
C6       0.95499    1.22154    0.90721   1.00
C6       0.90422    1.25759    0.89198   1.00
C6       0.91684    1.21995    0.89465   1.00
H3       0.93503    1.31197    0.90429   1.00
H3       0.97358    1.19700    0.91244   1.00
H3       0.87568    1.26713    0.88298   1.00
H3       0.90008    1.19425    0.88819   1.00
N1       1.07388    1.24143    1.05801   1.00
C6       1.07584    1.27846    1.06989   1.00
C6       1.07414    1.21927    1.09009   1.00
C6       1.07685    1.28005    1.11004   1.00
C6       1.07576    1.24241    1.12289   1.00
H3       1.07620    1.30300    1.05058   1.00
H3       1.07288    1.18803    1.08984   1.00
H3       1.07820    1.30575    1.12795   1.00
H3       1.07614    1.23287    1.15282   1.00
C4       0.77085    1.00016    0.99988   1.00
C4       0.72915    0.99984    1.00012   1.00
C3a      0.79254    1.00868    0.96534   1.00
C3       0.70768    1.03490    1.00229   1.00
C3       0.79232    0.99212    1.03408   1.00
C3a      0.70746    0.96431    0.99830   1.00
C2       0.85512    1.00005    1.00006   1.00
C2       0.64488    1.00005    1.00007   1.00
C3       0.83405    1.00841    0.96596   1.00
C3       0.66637    1.03496    1.00215   1.00
C3       0.83363    0.99196    1.03409   1.00
C3       0.66595    0.96498    0.99823   1.00
C5       0.77228    1.01758    0.92713   1.00
H1       0.72309    1.06246    1.00371   1.00
H1       0.85021    1.01471    0.93959   1.00
H1       0.65099    1.06250    1.00363   1.00
H1       0.84901    0.98542    1.06088   1.00
H1       0.64979    0.93791    0.99664   1.00
C5       0.72772    0.92515    0.99579   1.00
H1       0.77691    0.98552    1.06087   1.00
H2       0.70744    0.90304    0.98355   1.00
H2       0.75269    0.92677    0.97520   1.00
H2       0.79256    1.01225    0.90242   1.00
H2       0.74731    0.99740    0.92273   1.00
N1       0.74143    0.91251    1.03421   1.00
C6       0.71927    0.90300    1.06484   1.00
C6       0.77846    0.90721    1.04501   1.00
C6       0.74241    0.89198    1.09578   1.00
C6       0.78005    0.89465    1.08316   1.00
H3       0.68803    0.90429    1.06497   1.00
H3       0.80300    0.91244    1.02642   1.00
H3       0.73287    0.88298    1.12432   1.00
H3       0.80575    0.88819    1.09992   1.00
N1       0.75857    1.05801    0.92612   1.00
C6       0.72154    1.06989    0.92416   1.00
C6       0.78073    1.09009    0.92586   1.00
C6       0.71995    1.11004    0.92315   1.00
C6       0.75759    1.12289    0.92424   1.00
H3       0.69700    1.05058    0.92380   1.00
H3       0.81197    1.08984    0.92712   1.00
H3       0.69425    1.12795    0.92180   1.00
H3       0.76713    1.15282    0.92386   1.00
C4       1.22915    1.00016    1.00012   1.00
C4       1.27085    0.99984    0.99988   1.00
C3a      1.20746    1.00868    1.03466   1.00
C3       1.29232    1.03490    0.99771   1.00
C3       1.20768    0.99212    0.96592   1.00
C3a      1.29254    0.96431    1.00170   1.00
C2       1.14488    1.00005    0.99994   1.00
C2       1.35512    1.00005    0.99993   1.00
C3       1.16595    1.00841    1.03404   1.00
C3       1.33363    1.03496    0.99785   1.00
C3       1.16637    0.99196    0.96591   1.00
C3       1.33405    0.96498    1.00177   1.00
C5       1.22772    1.01758    1.07287   1.00
H1       1.27691    1.06246    0.99629   1.00
H1       1.14979    1.01471    1.06041   1.00
H1       1.34901    1.06250    0.99637   1.00
H1       1.15099    0.98542    0.93912   1.00
H1       1.35021    0.93791    1.00336   1.00
C5       1.27228    0.92515    1.00421   1.00
H1       1.22309    0.98552    0.93913   1.00
H2       1.29256    0.90304    1.01645   1.00
H2       1.24731    0.92677    1.02480   1.00
H2       1.20744    1.01225    1.09758   1.00
H2       1.25269    0.99740    1.07727   1.00
N1       1.25857    0.91251    0.96579   1.00
C6       1.28073    0.90300    0.93516   1.00
C6       1.22154    0.90721    0.95499   1.00
C6       1.25759    0.89198    0.90422   1.00
C6       1.21995    0.89465    0.91684   1.00
H3       1.31197    0.90429    0.93503   1.00
H3       1.19700    0.91244    0.97358   1.00
H3       1.26713    0.88298    0.87568   1.00
H3       1.19425    0.88819    0.90008   1.00
N1       1.24143    1.05801    1.07388   1.00
C6       1.27846    1.06989    1.07584   1.00
C6       1.21927    1.09009    1.07414   1.00
C6       1.28005    1.11004    1.07685   1.00
C6       1.24241    1.12289    1.07576   1.00
H3       1.30300    1.05058    1.07620   1.00
H3       1.18803    1.08984    1.07288   1.00
H3       1.30575    1.12795    1.07820   1.00
H3       1.23287    1.15282    1.07614   1.00
C4       0.99988    0.77085    1.00016   1.00
C4       1.00012    0.72915    0.99984   1.00
C3a      0.96534    0.79254    1.00868   1.00
C3       1.00229    0.70768    1.03490   1.00
C3       1.03408    0.79232    0.99212   1.00
C3a      0.99830    0.70746    0.96431   1.00
C2       1.00006    0.85512    1.00005   1.00
C2       1.00007    0.64488    1.00005   1.00
C3       0.96596    0.83405    1.00841   1.00
C3       1.00215    0.66637    1.03496   1.00
C3       1.03409    0.83363    0.99196   1.00
C3       0.99823    0.66595    0.96498   1.00
C5       0.92713    0.77228    1.01758   1.00
H1       1.00371    0.72309    1.06246   1.00
H1       0.93959    0.85021    1.01471   1.00
H1       1.00363    0.65099    1.06250   1.00
H1       1.06088    0.84901    0.98542   1.00
H1       0.99664    0.64979    0.93791   1.00
C5       0.99579    0.72772    0.92515   1.00
H1       1.06087    0.77691    0.98552   1.00
H2       0.98355    0.70744    0.90304   1.00
H2       0.97520    0.75269    0.92677   1.00
H2       0.90242    0.79256    1.01225   1.00
H2       0.92273    0.74731    0.99740   1.00
N1       1.03421    0.74143    0.91251   1.00
C6       1.06484    0.71927    0.90300   1.00
C6       1.04501    0.77846    0.90721   1.00
C6       1.09578    0.74241    0.89198   1.00
C6       1.08316    0.78005    0.89465   1.00
H3       1.06497    0.68803    0.90429   1.00
H3       1.02642    0.80300    0.91244   1.00
H3       1.12432    0.73287    0.88298   1.00
H3       1.09992    0.80575    0.88819   1.00
N1       0.92612    0.75857    1.05801   1.00
C6       0.92416    0.72154    1.06989   1.00
C6       0.92586    0.78073    1.09009   1.00
C6       0.92315    0.71995    1.11004   1.00
C6       0.92424    0.75759    1.12289   1.00
H3       0.92380    0.69700    1.05058   1.00
H3       0.92712    0.81197    1.08984   1.00
H3       0.92180    0.69425    1.12795   1.00
H3       0.92386    0.76713    1.15282   1.00
C4       1.00016    0.99988    0.77085   1.00
C4       0.99984    1.00012    0.72915   1.00
C3a      1.00868    0.96534    0.79254   1.00
C3       1.03490    1.00229    0.70768   1.00
C3       0.99212    1.03408    0.79232   1.00
C3a      0.96431    0.99830    0.70746   1.00
C2       1.00005    1.00006    0.85512   1.00
C2       1.00005    1.00007    0.64488   1.00
C3       1.00841    0.96596    0.83405   1.00
C3       1.03496    1.00215    0.66637   1.00
C3       0.99196    1.03409    0.83363   1.00
C3       0.96498    0.99823    0.66595   1.00
C5       1.01758    0.92713    0.77228   1.00
H1       1.06246    1.00371    0.72309   1.00
H1       1.01471    0.93959    0.85021   1.00
H1       1.06250    1.00363    0.65099   1.00
H1       0.98542    1.06088    0.84901   1.00
H1       0.93791    0.99664    0.64979   1.00
C5       0.92515    0.99579    0.72772   1.00
H1       0.98552    1.06087    0.77691   1.00
H2       0.90304    0.98355    0.70744   1.00
H2       0.92677    0.97520    0.75269   1.00
H2       1.01225    0.90242    0.79256   1.00
H2       0.99740    0.92273    0.74731   1.00
N1       0.91251    1.03421    0.74143   1.00
C6       0.90300    1.06484    0.71927   1.00
C6       0.90721    1.04501    0.77846   1.00
C6       0.89198    1.09578    0.74241   1.00
C6       0.89465    1.08316    0.78005   1.00
H3       0.90429    1.06497    0.68803   1.00
H3       0.91244    1.02642    0.80300   1.00
H3       0.88298    1.12432    0.73287   1.00
H3       0.88819    1.09992    0.80575   1.00
N1       1.05801    0.92612    0.75857   1.00
C6       1.06989    0.92416    0.72154   1.00
C6       1.09009    0.92586    0.78073   1.00
C6       1.11004    0.92315    0.71995   1.00
C6       1.12289    0.92424    0.75759   1.00
H3       1.05058    0.92380    0.69700   1.00
H3       1.08984    0.92712    0.81197   1.00
H3       1.12795    0.92180    0.69425   1.00
H3       1.15282    0.92386    0.76713   1.00
C4       0.50016    0.50012    1.22915   1.00
C4       0.49984    0.49988    1.27085   1.00
C3a      0.50868    0.53466    1.20746   1.00
C3       0.53490    0.49771    1.29232   1.00
C3       0.49212    0.46592    1.20768   1.00
C3a      0.46431    0.50170    1.29254   1.00
C2       0.50005    0.49994    1.14488   1.00
C2       0.50005    0.49993    1.35512   1.00
C3       0.50841    0.53404    1.16595   1.00
C3       0.53496    0.49785    1.33363   1.00
C3       0.49196    0.46591    1.16637   1.00
C3       0.46498    0.50177    1.33405   1.00
C5       0.51758    0.57287    1.22772   1.00
H1       0.56246    0.49629    1.27691   1.00
H1       0.51471    0.56041    1.14979   1.00
H1       0.56250    0.49637    1.34901   1.00
H1       0.48542    0.43912    1.15099   1.00
H1       0.43791    0.50336    1.35021   1.00
C5       0.42515    0.50421    1.27228   1.00
H1       0.48552    0.43913    1.22309   1.00
H2       0.40304    0.51645    1.29256   1.00
H2       0.42677    0.52480    1.24731   1.00
H2       0.51225    0.59758    1.20744   1.00
H2       0.49740    0.57727    1.25269   1.00
N1       0.41251    0.46579    1.25857   1.00
C6       0.40300    0.43516    1.28073   1.00
C6       0.40721    0.45499    1.22154   1.00
C6       0.39198    0.40422    1.25759   1.00
C6       0.39465    0.41684    1.21995   1.00
H3       0.40429    0.43503    1.31197   1.00
H3       0.41244    0.47358    1.19700   1.00
H3       0.38298    0.37568    1.26713   1.00
H3       0.38819    0.40008    1.19425   1.00
N1       0.55801    0.57388    1.24143   1.00
C6       0.56989    0.57584    1.27846   1.00
C6       0.59009    0.57414    1.21927   1.00
C6       0.61004    0.57685    1.28005   1.00
C6       0.62289    0.57576    1.24241   1.00
H3       0.55058    0.57620    1.30300   1.00
H3       0.58984    0.57288    1.18803   1.00
H3       0.62795    0.57820    1.30575   1.00
H3       0.65282    0.57614    1.23287   1.00
C4       0.50012    0.72915    1.00016   1.00
C4       0.49988    0.77085    0.99984   1.00
C3a      0.53466    0.70746    1.00868   1.00
C3       0.49771    0.79232    1.03490   1.00
C3       0.46592    0.70768    0.99212   1.00
C3a      0.50170    0.79254    0.96431   1.00
C2       0.49994    0.64488    1.00005   1.00
C2       0.49993    0.85512    1.00005   1.00
C3       0.53404    0.66595    1.00841   1.00
C3       0.49785    0.83363    1.03496   1.00
C3       0.46591    0.66637    0.99196   1.00
C3       0.50177    0.83405    0.96498   1.00
C5       0.57287    0.72772    1.01758   1.00
H1       0.49629    0.77691    1.06246   1.00
H1       0.56041    0.64979    1.01471   1.00
H1       0.49637    0.84901    1.06250   1.00
H1       0.43912    0.65099    0.98542   1.00
H1       0.50336    0.85021    0.93791   1.00
C5       0.50421    0.77228    0.92515   1.00
H1       0.43913    0.72309    0.98552   1.00
H2       0.51645    0.79256    0.90304   1.00
H2       0.52480    0.74731    0.92677   1.00
H2       0.59758    0.70744    1.01225   1.00
H2       0.57727    0.75269    0.99740   1.00
N1       0.46579    0.75857    0.91251   1.00
C6       0.43516    0.78073    0.90300   1.00
C6       0.45499    0.72154    0.90721   1.00
C6       0.40422    0.75759    0.89198   1.00
C6       0.41684    0.71995    0.89465   1.00
H3       0.43503    0.81197    0.90429   1.00
H3       0.47358    0.69700    0.91244   1.00
H3       0.37568    0.76713    0.88298   1.00
H3       0.40008    0.69425    0.88819   1.00
N1       0.57388    0.74143    1.05801   1.00
C6       0.57584    0.77846    1.06989   1.00
C6       0.57414    0.71927    1.09009   1.00
C6       0.57685    0.78005    1.11004   1.00
C6       0.57576    0.74241    1.12289   1.00
H3       0.57620    0.80300    1.05058   1.00
H3       0.57288    0.68803    1.08984   1.00
H3       0.57820    0.80575    1.12795   1.00
H3       0.57614    0.73287    1.15282   1.00
C4       0.27085    0.50016    0.99988   1.00
C4       0.22915    0.49984    1.00012   1.00
C3a      0.29254    0.50868    0.96534   1.00
C3       0.20768    0.53490    1.00229   1.00
C3       0.29232    0.49212    1.03408   1.00
C3a      0.20746    0.46431    0.99830   1.00
C2       0.35512    0.50005    1.00006   1.00
C2       0.14488    0.50005    1.00007   1.00
C3       0.33405    0.50841    0.96596   1.00
C3       0.16637    0.53496    1.00215   1.00
C3       0.33363    0.49196    1.03409   1.00
C3       0.16595    0.46498    0.99823   1.00
C5       0.27228    0.51758    0.92713   1.00
H1       0.22309    0.56246    1.00371   1.00
H1       0.35021    0.51471    0.93959   1.00
H1       0.15099    0.56250    1.00363   1.00
H1       0.34901    0.48542    1.06088   1.00
H1       0.14979    0.43791    0.99664   1.00
C5       0.22772    0.42515    0.99579   1.00
H1       0.27691    0.48552    1.06087   1.00
H2       0.20744    0.40304    0.98355   1.00
H2       0.25269    0.42677    0.97520   1.00
H2       0.29256    0.51225    0.90242   1.00
H2       0.24731    0.49740    0.92273   1.00
N1       0.24143    0.41251    1.03421   1.00
C6       0.21927    0.40300    1.06484   1.00
C6       0.27846    0.40721    1.04501   1.00
C6       0.24241    0.39198    1.09578   1.00
C6       0.28005    0.39465    1.08316   1.00
H3       0.18803    0.40429    1.06497   1.00
H3       0.30300    0.41244    1.02642   1.00
H3       0.23287    0.38298    1.12432   1.00
H3       0.30575    0.38819    1.09992   1.00
N1       0.25857    0.55801    0.92612   1.00
C6       0.22154    0.56989    0.92416   1.00
C6       0.28073    0.59009    0.92586   1.00
C6       0.21995    0.61004    0.92315   1.00
C6       0.25759    0.62289    0.92424   1.00
H3       0.19700    0.55058    0.92380   1.00
H3       0.31197    0.58984    0.92712   1.00
H3       0.19425    0.62795    0.92180   1.00
H3       0.26713    0.65282    0.92386   1.00
C4       0.72915    0.50016    1.00012   1.00
C4       0.77085    0.49984    0.99988   1.00
C3a      0.70746    0.50868    1.03466   1.00
C3       0.79232    0.53490    0.99771   1.00
C3       0.70768    0.49212    0.96592   1.00
C3a      0.79254    0.46431    1.00170   1.00
C2       0.64488    0.50005    0.99994   1.00
C2       0.85512    0.50005    0.99993   1.00
C3       0.66595    0.50841    1.03404   1.00
C3       0.83363    0.53496    0.99785   1.00
C3       0.66637    0.49196    0.96591   1.00
C3       0.83405    0.46498    1.00177   1.00
C5       0.72772    0.51758    1.07287   1.00
H1       0.77691    0.56246    0.99629   1.00
H1       0.64979    0.51471    1.06041   1.00
H1       0.84901    0.56250    0.99637   1.00
H1       0.65099    0.48542    0.93912   1.00
H1       0.85021    0.43791    1.00336   1.00
C5       0.77228    0.42515    1.00421   1.00
H1       0.72309    0.48552    0.93913   1.00
H2       0.79256    0.40304    1.01645   1.00
H2       0.74731    0.42677    1.02480   1.00
H2       0.70744    0.51225    1.09758   1.00
H2       0.75269    0.49740    1.07727   1.00
N1       0.75857    0.41251    0.96579   1.00
C6       0.78073    0.40300    0.93516   1.00
C6       0.72154    0.40721    0.95499   1.00
C6       0.75759    0.39198    0.90422   1.00
C6       0.71995    0.39465    0.91684   1.00
H3       0.81197    0.40429    0.93503   1.00
H3       0.69700    0.41244    0.97358   1.00
H3       0.76713    0.38298    0.87568   1.00
H3       0.69425    0.38819    0.90008   1.00
N1       0.74143    0.55801    1.07388   1.00
C6       0.77846    0.56989    1.07584   1.00
C6       0.71927    0.59009    1.07414   1.00
C6       0.78005    0.61004    1.07685   1.00
C6       0.74241    0.62289    1.07576   1.00
H3       0.80300    0.55058    1.07620   1.00
H3       0.68803    0.58984    1.07288   1.00
H3       0.80575    0.62795    1.07820   1.00
H3       0.73287    0.65282    1.07614   1.00
C4       0.49988    0.27085    1.00016   1.00
C4       0.50012    0.22915    0.99984   1.00
C3a      0.46534    0.29254    1.00868   1.00
C3       0.50229    0.20768    1.03490   1.00
C3       0.53408    0.29232    0.99212   1.00
C3a      0.49830    0.20746    0.96431   1.00
C2       0.50006    0.35512    1.00005   1.00
C2       0.50007    0.14488    1.00005   1.00
C3       0.46596    0.33405    1.00841   1.00
C3       0.50215    0.16637    1.03496   1.00
C3       0.53409    0.33363    0.99196   1.00
C3       0.49823    0.16595    0.96498   1.00
C5       0.42713    0.27228    1.01758   1.00
H1       0.50371    0.22309    1.06246   1.00
H1       0.43959    0.35021    1.01471   1.00
H1       0.50363    0.15099    1.06250   1.00
H1       0.56088    0.34901    0.98542   1.00
H1       0.49664    0.14979    0.93791   1.00
C5       0.49579    0.22772    0.92515   1.00
H1       0.56087    0.27691    0.98552   1.00
H2       0.48355    0.20744    0.90304   1.00
H2       0.47520    0.25269    0.92677   1.00
H2       0.40242    0.29256    1.01225   1.00
H2       0.42273    0.24731    0.99740   1.00
N1       0.53421    0.24143    0.91251   1.00
C6       0.56484    0.21927    0.90300   1.00
C6       0.54501    0.27846    0.90721   1.00
C6       0.59578    0.24241    0.89198   1.00
C6       0.58316    0.28005    0.89465   1.00
H3       0.56497    0.18803    0.90429   1.00
H3       0.52642    0.30300    0.91244   1.00
H3       0.62432    0.23287    0.88298   1.00
H3       0.59992    0.30575    0.88819   1.00
N1       0.42612    0.25857    1.05801   1.00
C6       0.42416    0.22154    1.06989   1.00
C6       0.42586    0.28073    1.09009   1.00
C6       0.42315    0.21995    1.11004   1.00
C6       0.42424    0.25759    1.12289   1.00
H3       0.42380    0.19700    1.05058   1.00
H3       0.42712    0.31197    1.08984   1.00
H3       0.42180    0.19425    1.12795   1.00
H3       0.42386    0.26713    1.15282   1.00
C4       0.50016    0.49988    0.77085   1.00
C4       0.49984    0.50012    0.72915   1.00
C3a      0.50868    0.46534    0.79254   1.00
C3       0.53490    0.50229    0.70768   1.00
C3       0.49212    0.53408    0.79232   1.00
C3a      0.46431    0.49830    0.70746   1.00
C2       0.50005    0.50006    0.85512   1.00
C2       0.50005    0.50007    0.64488   1.00
C3       0.50841    0.46596    0.83405   1.00
C3       0.53496    0.50215    0.66637   1.00
C3       0.49196    0.53409    0.83363   1.00
C3       0.46498    0.49823    0.66595   1.00
C5       0.51758    0.42713    0.77228   1.00
H1       0.56246    0.50371    0.72309   1.00
H1       0.51471    0.43959    0.85021   1.00
H1       0.56250    0.50363    0.65099   1.00
H1       0.48542    0.56088    0.84901   1.00
H1       0.43791    0.49664    0.64979   1.00
C5       0.42515    0.49579    0.72772   1.00
H1       0.48552    0.56087    0.77691   1.00
H2       0.40304    0.48355    0.70744   1.00
H2       0.42677    0.47520    0.75269   1.00
H2       0.51225    0.40242    0.79256   1.00
H2       0.49740    0.42273    0.74731   1.00
N1       0.41251    0.53421    0.74143   1.00
C6       0.40300    0.56484    0.71927   1.00
C6       0.40721    0.54501    0.77846   1.00
C6       0.39198    0.59578    0.74241   1.00
C6       0.39465    0.58316    0.78005   1.00
H3       0.40429    0.56497    0.68803   1.00
H3       0.41244    0.52642    0.80300   1.00
H3       0.38298    0.62432    0.73287   1.00
H3       0.38819    0.59992    0.80575   1.00
N1       0.55801    0.42612    0.75857   1.00
C6       0.56989    0.42416    0.72154   1.00
C6       0.59009    0.42586    0.78073   1.00
C6       0.61004    0.42315    0.71995   1.00
C6       0.62289    0.42424    0.75759   1.00
H3       0.55058    0.42380    0.69700   1.00
H3       0.58984    0.42712    0.81197   1.00
H3       0.62795    0.42180    0.69425   1.00
H3       0.65282    0.42386    0.76713   1.00
C4       0.50016    1.00012    0.72915   1.00
C4       0.49984    0.99988    0.77085   1.00
C3a      0.50868    1.03466    0.70746   1.00
C3       0.53490    0.99771    0.79232   1.00
C3       0.49212    0.96592    0.70768   1.00
C3a      0.46431    1.00170    0.79254   1.00
C2       0.50005    0.99994    0.64488   1.00
C2       0.50005    0.99993    0.85512   1.00
C3       0.50841    1.03404    0.66595   1.00
C3       0.53496    0.99785    0.83363   1.00
C3       0.49196    0.96591    0.66637   1.00
C3       0.46498    1.00177    0.83405   1.00
C5       0.51758    1.07287    0.72772   1.00
H1       0.56246    0.99629    0.77691   1.00
H1       0.51471    1.06041    0.64979   1.00
H1       0.56250    0.99637    0.84901   1.00
H1       0.48542    0.93912    0.65099   1.00
H1       0.43791    1.00336    0.85021   1.00
C5       0.42515    1.00421    0.77228   1.00
H1       0.48552    0.93913    0.72309   1.00
H2       0.40304    1.01645    0.79256   1.00
H2       0.42677    1.02480    0.74731   1.00
H2       0.51225    1.09758    0.70744   1.00
H2       0.49740    1.07727    0.75269   1.00
N1       0.41251    0.96579    0.75857   1.00
C6       0.40300    0.93516    0.78073   1.00
C6       0.40721    0.95499    0.72154   1.00
C6       0.39198    0.90422    0.75759   1.00
C6       0.39465    0.91684    0.71995   1.00
H3       0.40429    0.93503    0.81197   1.00
H3       0.41244    0.97358    0.69700   1.00
H3       0.38298    0.87568    0.76713   1.00
H3       0.38819    0.90008    0.69425   1.00
N1       0.55801    1.07388    0.74143   1.00
C6       0.56989    1.07584    0.77846   1.00
C6       0.59009    1.07414    0.71927   1.00
C6       0.61004    1.07685    0.78005   1.00
C6       0.62289    1.07576    0.74241   1.00
H3       0.55058    1.07620    0.80300   1.00
H3       0.58984    1.07288    0.68803   1.00
H3       0.62795    1.07820    0.80575   1.00
H3       0.65282    1.07614    0.73287   1.00
C4       0.50012    1.22915    0.50016   1.00
C4       0.49988    1.27085    0.49984   1.00
C3a      0.53466    1.20746    0.50868   1.00
C3       0.49771    1.29232    0.53490   1.00
C3       0.46592    1.20768    0.49212   1.00
C3a      0.50170    1.29254    0.46431   1.00
C2       0.49994    1.14488    0.50005   1.00
C2       0.49993    1.35512    0.50005   1.00
C3       0.53404    1.16595    0.50841   1.00
C3       0.49785    1.33363    0.53496   1.00
C3       0.46591    1.16637    0.49196   1.00
C3       0.50177    1.33405    0.46498   1.00
C5       0.57287    1.22772    0.51758   1.00
H1       0.49629    1.27691    0.56246   1.00
H1       0.56041    1.14979    0.51471   1.00
H1       0.49637    1.34901    0.56250   1.00
H1       0.43912    1.15099    0.48542   1.00
H1       0.50336    1.35021    0.43791   1.00
C5       0.50421    1.27228    0.42515   1.00
H1       0.43913    1.22309    0.48552   1.00
H2       0.51645    1.29256    0.40304   1.00
H2       0.52480    1.24731    0.42677   1.00
H2       0.59758    1.20744    0.51225   1.00
H2       0.57727    1.25269    0.49740   1.00
N1       0.46579    1.25857    0.41251   1.00
C6       0.43516    1.28073    0.40300   1.00
C6       0.45499    1.22154    0.40721   1.00
C6       0.40422    1.25759    0.39198   1.00
C6       0.41684    1.21995    0.39465   1.00
H3       0.43503    1.31197    0.40429   1.00
H3       0.47358    1.19700    0.41244   1.00
H3       0.37568    1.26713    0.38298   1.00
H3       0.40008    1.19425    0.38819   1.00
N1       0.57388    1.24143    0.55801   1.00
C6       0.57584    1.27846    0.56989   1.00
C6       0.57414    1.21927    0.59009   1.00
C6       0.57685    1.28005    0.61004   1.00
C6       0.57576    1.24241    0.62289   1.00
H3       0.57620    1.30300    0.55058   1.00
H3       0.57288    1.18803    0.58984   1.00
H3       0.57820    1.30575    0.62795   1.00
H3       0.57614    1.23287    0.65282   1.00
C4       0.27085    1.00016    0.49988   1.00
C4       0.22915    0.99984    0.50012   1.00
C3a      0.29254    1.00868    0.46534   1.00
C3       0.20768    1.03490    0.50229   1.00
C3       0.29232    0.99212    0.53408   1.00
C3a      0.20746    0.96431    0.49830   1.00
C2       0.35512    1.00005    0.50006   1.00
C2       0.14488    1.00005    0.50007   1.00
C3       0.33405    1.00841    0.46596   1.00
C3       0.16637    1.03496    0.50215   1.00
C3       0.33363    0.99196    0.53409   1.00
C3       0.16595    0.96498    0.49823   1.00
C5       0.27228    1.01758    0.42713   1.00
H1       0.22309    1.06246    0.50371   1.00
H1       0.35021    1.01471    0.43959   1.00
H1       0.15099    1.06250    0.50363   1.00
H1       0.34901    0.98542    0.56088   1.00
H1       0.14979    0.93791    0.49664   1.00
C5       0.22772    0.92515    0.49579   1.00
H1       0.27691    0.98552    0.56087   1.00
H2       0.20744    0.90304    0.48355   1.00
H2       0.25269    0.92677    0.47520   1.00
H2       0.29256    1.01225    0.40242   1.00
H2       0.24731    0.99740    0.42273   1.00
N1       0.24143    0.91251    0.53421   1.00
C6       0.21927    0.90300    0.56484   1.00
C6       0.27846    0.90721    0.54501   1.00
C6       0.24241    0.89198    0.59578   1.00
C6       0.28005    0.89465    0.58316   1.00
H3       0.18803    0.90429    0.56497   1.00
H3       0.30300    0.91244    0.52642   1.00
H3       0.23287    0.88298    0.62432   1.00
H3       0.30575    0.88819    0.59992   1.00
N1       0.25857    1.05801    0.42612   1.00
C6       0.22154    1.06989    0.42416   1.00
C6       0.28073    1.09009    0.42586   1.00
C6       0.21995    1.11004    0.42315   1.00
C6       0.25759    1.12289    0.42424   1.00
H3       0.19700    1.05058    0.42380   1.00
H3       0.31197    1.08984    0.42712   1.00
H3       0.19425    1.12795    0.42180   1.00
H3       0.26713    1.15282    0.42386   1.00
C4       0.72915    1.00016    0.50012   1.00
C4       0.77085    0.99984    0.49988   1.00
C3a      0.70746    1.00868    0.53466   1.00
C3       0.79232    1.03490    0.49771   1.00
C3       0.70768    0.99212    0.46592   1.00
C3a      0.79254    0.96431    0.50170   1.00
C2       0.64488    1.00005    0.49994   1.00
C2       0.85512    1.00005    0.49993   1.00
C3       0.66595    1.00841    0.53404   1.00
C3       0.83363    1.03496    0.49785   1.00
C3       0.66637    0.99196    0.46591   1.00
C3       0.83405    0.96498    0.50177   1.00
C5       0.72772    1.01758    0.57287   1.00
H1       0.77691    1.06246    0.49629   1.00
H1       0.64979    1.01471    0.56041   1.00
H1       0.84901    1.06250    0.49637   1.00
H1       0.65099    0.98542    0.43912   1.00
H1       0.85021    0.93791    0.50336   1.00
C5       0.77228    0.92515    0.50421   1.00
H1       0.72309    0.98552    0.43913   1.00
H2       0.79256    0.90304    0.51645   1.00
H2       0.74731    0.92677    0.52480   1.00
H2       0.70744    1.01225    0.59758   1.00
H2       0.75269    0.99740    0.57727   1.00
N1       0.75857    0.91251    0.46579   1.00
C6       0.78073    0.90300    0.43516   1.00
C6       0.72154    0.90721    0.45499   1.00
C6       0.75759    0.89198    0.40422   1.00
C6       0.71995    0.89465    0.41684   1.00
H3       0.81197    0.90429    0.43503   1.00
H3       0.69700    0.91244    0.47358   1.00
H3       0.76713    0.88298    0.37568   1.00
H3       0.69425    0.88819    0.40008   1.00
N1       0.74143    1.05801    0.57388   1.00
C6       0.77846    1.06989    0.57584   1.00
C6       0.71927    1.09009    0.57414   1.00
C6       0.78005    1.11004    0.57685   1.00
C6       0.74241    1.12289    0.57576   1.00
H3       0.80300    1.05058    0.57620   1.00
H3       0.68803    1.08984    0.57288   1.00
H3       0.80575    1.12795    0.57820   1.00
H3       0.73287    1.15282    0.57614   1.00
C4       0.49988    0.77085    0.50016   1.00
C4       0.50012    0.72915    0.49984   1.00
C3a      0.46534    0.79254    0.50868   1.00
C3       0.50229    0.70768    0.53490   1.00
C3       0.53408    0.79232    0.49212   1.00
C3a      0.49830    0.70746    0.46431   1.00
C2       0.50006    0.85512    0.50005   1.00
C2       0.50007    0.64488    0.50005   1.00
C3       0.46596    0.83405    0.50841   1.00
C3       0.50215    0.66637    0.53496   1.00
C3       0.53409    0.83363    0.49196   1.00
C3       0.49823    0.66595    0.46498   1.00
C5       0.42713    0.77228    0.51758   1.00
H1       0.50371    0.72309    0.56246   1.00
H1       0.43959    0.85021    0.51471   1.00
H1       0.50363    0.65099    0.56250   1.00
H1       0.56088    0.84901    0.48542   1.00
H1       0.49664    0.64979    0.43791   1.00
C5       0.49579    0.72772    0.42515   1.00
H1       0.56087    0.77691    0.48552   1.00
H2       0.48355    0.70744    0.40304   1.00
H2       0.47520    0.75269    0.42677   1.00
H2       0.40242    0.79256    0.51225   1.00
H2       0.42273    0.74731    0.49740   1.00
N1       0.53421    0.74143    0.41251   1.00
C6       0.56484    0.71927    0.40300   1.00
C6       0.54501    0.77846    0.40721   1.00
C6       0.59578    0.74241    0.39198   1.00
C6       0.58316    0.78005    0.39465   1.00
H3       0.56497    0.68803    0.40429   1.00
H3       0.52642    0.80300    0.41244   1.00
H3       0.62432    0.73287    0.38298   1.00
H3       0.59992    0.80575    0.38819   1.00
N1       0.42612    0.75857    0.55801   1.00
C6       0.42416    0.72154    0.56989   1.00
C6       0.42586    0.78073    0.59009   1.00
C6       0.42315    0.71995    0.61004   1.00
C6       0.42424    0.75759    0.62289   1.00
H3       0.42380    0.69700    0.55058   1.00
H3       0.42712    0.81197    0.58984   1.00
H3       0.42180    0.69425    0.62795   1.00
H3       0.42386    0.76713    0.65282   1.00
C4       0.50016    0.99988    0.27085   1.00
C4       0.49984    1.00012    0.22915   1.00
C3a      0.50868    0.96534    0.29254   1.00
C3       0.53490    1.00229    0.20768   1.00
C3       0.49212    1.03408    0.29232   1.00
C3a      0.46431    0.99830    0.20746   1.00
C2       0.50005    1.00006    0.35512   1.00
C2       0.50005    1.00007    0.14488   1.00
C3       0.50841    0.96596    0.33405   1.00
C3       0.53496    1.00215    0.16637   1.00
C3       0.49196    1.03409    0.33363   1.00
C3       0.46498    0.99823    0.16595   1.00
C5       0.51758    0.92713    0.27228   1.00
H1       0.56246    1.00371    0.22309   1.00
H1       0.51471    0.93959    0.35021   1.00
H1       0.56250    1.00363    0.15099   1.00
H1       0.48542    1.06088    0.34901   1.00
H1       0.43791    0.99664    0.14979   1.00
C5       0.42515    0.99579    0.22772   1.00
H1       0.48552    1.06087    0.27691   1.00
H2       0.40304    0.98355    0.20744   1.00
H2       0.42677    0.97520    0.25269   1.00
H2       0.51225    0.90242    0.29256   1.00
H2       0.49740    0.92273    0.24731   1.00
N1       0.41251    1.03421    0.24143   1.00
C6       0.40300    1.06484    0.21927   1.00
C6       0.40721    1.04501    0.27846   1.00
C6       0.39198    1.09578    0.24241   1.00
C6       0.39465    1.08316    0.28005   1.00
H3       0.40429    1.06497    0.18803   1.00
H3       0.41244    1.02642    0.30300   1.00
H3       0.38298    1.12432    0.23287   1.00
H3       0.38819    1.09992    0.30575   1.00
N1       0.55801    0.92612    0.25857   1.00
C6       0.56989    0.92416    0.22154   1.00
C6       0.59009    0.92586    0.28073   1.00
C6       0.61004    0.92315    0.21995   1.00
C6       0.62289    0.92424    0.25759   1.00
H3       0.55058    0.92380    0.19700   1.00
H3       0.58984    0.92712    0.31197   1.00
H3       0.62795    0.92180    0.19425   1.00
H3       0.65282    0.92386    0.26713   1.00
C4       1.00016    0.50012    0.72915   1.00
C4       0.99984    0.49988    0.77085   1.00
C3a      1.00868    0.53466    0.70746   1.00
C3       1.03490    0.49771    0.79232   1.00
C3       0.99212    0.46592    0.70768   1.00
C3a      0.96431    0.50170    0.79254   1.00
C2       1.00005    0.49994    0.64488   1.00
C2       1.00005    0.49993    0.85512   1.00
C3       1.00841    0.53404    0.66595   1.00
C3       1.03496    0.49785    0.83363   1.00
C3       0.99196    0.46591    0.66637   1.00
C3       0.96498    0.50177    0.83405   1.00
C5       1.01758    0.57287    0.72772   1.00
H1       1.06246    0.49629    0.77691   1.00
H1       1.01471    0.56041    0.64979   1.00
H1       1.06250    0.49637    0.84901   1.00
H1       0.98542    0.43912    0.65099   1.00
H1       0.93791    0.50336    0.85021   1.00
C5       0.92515    0.50421    0.77228   1.00
H1       0.98552    0.43913    0.72309   1.00
H2       0.90304    0.51645    0.79256   1.00
H2       0.92677    0.52480    0.74731   1.00
H2       1.01225    0.59758    0.70744   1.00
H2       0.99740    0.57727    0.75269   1.00
N1       0.91251    0.46579    0.75857   1.00
C6       0.90300    0.43516    0.78073   1.00
C6       0.90721    0.45499    0.72154   1.00
C6       0.89198    0.40422    0.75759   1.00
C6       0.89465    0.41684    0.71995   1.00
H3       0.90429    0.43503    0.81197   1.00
H3       0.91244    0.47358    0.69700   1.00
H3       0.88298    0.37568    0.76713   1.00
H3       0.88819    0.40008    0.69425   1.00
N1       1.05801    0.57388    0.74143   1.00
C6       1.06989    0.57584    0.77846   1.00
C6       1.09009    0.57414    0.71927   1.00
C6       1.11004    0.57685    0.78005   1.00
C6       1.12289    0.57576    0.74241   1.00
H3       1.05058    0.57620    0.80300   1.00
H3       1.08984    0.57288    0.68803   1.00
H3       1.12795    0.57820    0.80575   1.00
H3       1.15282    0.57614    0.73287   1.00
C4       1.00012    0.72915    0.50016   1.00
C4       0.99988    0.77085    0.49984   1.00
C3a      1.03466    0.70746    0.50868   1.00
C3       0.99771    0.79232    0.53490   1.00
C3       0.96592    0.70768    0.49212   1.00
C3a      1.00170    0.79254    0.46431   1.00
C2       0.99994    0.64488    0.50005   1.00
C2       0.99993    0.85512    0.50005   1.00
C3       1.03404    0.66595    0.50841   1.00
C3       0.99785    0.83363    0.53496   1.00
C3       0.96591    0.66637    0.49196   1.00
C3       1.00177    0.83405    0.46498   1.00
C5       1.07287    0.72772    0.51758   1.00
H1       0.99629    0.77691    0.56246   1.00
H1       1.06041    0.64979    0.51471   1.00
H1       0.99637    0.84901    0.56250   1.00
H1       0.93912    0.65099    0.48542   1.00
H1       1.00336    0.85021    0.43791   1.00
C5       1.00421    0.77228    0.42515   1.00
H1       0.93913    0.72309    0.48552   1.00
H2       1.01645    0.79256    0.40304   1.00
H2       1.02480    0.74731    0.42677   1.00
H2       1.09758    0.70744    0.51225   1.00
H2       1.07727    0.75269    0.49740   1.00
N1       0.96579    0.75857    0.41251   1.00
C6       0.93516    0.78073    0.40300   1.00
C6       0.95499    0.72154    0.40721   1.00
C6       0.90422    0.75759    0.39198   1.00
C6       0.91684    0.71995    0.39465   1.00
H3       0.93503    0.81197    0.40429   1.00
H3       0.97358    0.69700    0.41244   1.00
H3       0.87568    0.76713    0.38298   1.00
H3       0.90008    0.69425    0.38819   1.00
N1       1.07388    0.74143    0.55801   1.00
C6       1.07584    0.77846    0.56989   1.00
C6       1.07414    0.71927    0.59009   1.00
C6       1.07685    0.78005    0.61004   1.00
C6       1.07576    0.74241    0.62289   1.00
H3       1.07620    0.80300    0.55058   1.00
H3       1.07288    0.68803    0.58984   1.00
H3       1.07820    0.80575    0.62795   1.00
H3       1.07614    0.73287    0.65282   1.00
C4       0.77085    0.50016    0.49988   1.00
C4       0.72915    0.49984    0.50012   1.00
C3a      0.79254    0.50868    0.46534   1.00
C3       0.70768    0.53490    0.50229   1.00
C3       0.79232    0.49212    0.53408   1.00
C3a      0.70746    0.46431    0.49830   1.00
C2       0.85512    0.50005    0.50006   1.00
C2       0.64488    0.50005    0.50007   1.00
C3       0.83405    0.50841    0.46596   1.00
C3       0.66637    0.53496    0.50215   1.00
C3       0.83363    0.49196    0.53409   1.00
C3       0.66595    0.46498    0.49823   1.00
C5       0.77228    0.51758    0.42713   1.00
H1       0.72309    0.56246    0.50371   1.00
H1       0.85021    0.51471    0.43959   1.00
H1       0.65099    0.56250    0.50363   1.00
H1       0.84901    0.48542    0.56088   1.00
H1       0.64979    0.43791    0.49664   1.00
C5       0.72772    0.42515    0.49579   1.00
H1       0.77691    0.48552    0.56087   1.00
H2       0.70744    0.40304    0.48355   1.00
H2       0.75269    0.42677    0.47520   1.00
H2       0.79256    0.51225    0.40242   1.00
H2       0.74731    0.49740    0.42273   1.00
N1       0.74143    0.41251    0.53421   1.00
C6       0.71927    0.40300    0.56484   1.00
C6       0.77846    0.40721    0.54501   1.00
C6       0.74241    0.39198    0.59578   1.00
C6       0.78005    0.39465    0.58316   1.00
H3       0.68803    0.40429    0.56497   1.00
H3       0.80300    0.41244    0.52642   1.00
H3       0.73287    0.38298    0.62432   1.00
H3       0.80575    0.38819    0.59992   1.00
N1       0.75857    0.55801    0.42612   1.00
C6       0.72154    0.56989    0.42416   1.00
C6       0.78073    0.59009    0.42586   1.00
C6       0.71995    0.61004    0.42315   1.00
C6       0.75759    0.62289    0.42424   1.00
H3       0.69700    0.55058    0.42380   1.00
H3       0.81197    0.58984    0.42712   1.00
H3       0.69425    0.62795    0.42180   1.00
H3       0.76713    0.65282    0.42386   1.00
C4       1.22915    0.50016    0.50012   1.00
C4       1.27085    0.49984    0.49988   1.00
C3a      1.20746    0.50868    0.53466   1.00
C3       1.29232    0.53490    0.49771   1.00
C3       1.20768    0.49212    0.46592   1.00
C3a      1.29254    0.46431    0.50170   1.00
C2       1.14488    0.50005    0.49994   1.00
C2       1.35512    0.50005    0.49993   1.00
C3       1.16595    0.50841    0.53404   1.00
C3       1.33363    0.53496    0.49785   1.00
C3       1.16637    0.49196    0.46591   1.00
C3       1.33405    0.46498    0.50177   1.00
C5       1.22772    0.51758    0.57287   1.00
H1       1.27691    0.56246    0.49629   1.00
H1       1.14979    0.51471    0.56041   1.00
H1       1.34901    0.56250    0.49637   1.00
H1       1.15099    0.48542    0.43912   1.00
H1       1.35021    0.43791    0.50336   1.00
C5       1.27228    0.42515    0.50421   1.00
H1       1.22309    0.48552    0.43913   1.00
H2       1.29256    0.40304    0.51645   1.00
H2       1.24731    0.42677    0.52480   1.00
H2       1.20744    0.51225    0.59758   1.00
H2       1.25269    0.49740    0.57727   1.00
N1       1.25857    0.41251    0.46579   1.00
C6       1.28073    0.40300    0.43516   1.00
C6       1.22154    0.40721    0.45499   1.00
C6       1.25759    0.39198    0.40422   1.00
C6       1.21995    0.39465    0.41684   1.00
H3       1.31197    0.40429    0.43503   1.00
H3       1.19700    0.41244    0.47358   1.00
H3       1.26713    0.38298    0.37568   1.00
H3       1.19425    0.38819    0.40008   1.00
N1       1.24143    0.55801    0.57388   1.00
C6       1.27846    0.56989    0.57584   1.00
C6       1.21927    0.59009    0.57414   1.00
C6       1.28005    0.61004    0.57685   1.00
C6       1.24241    0.62289    0.57576   1.00
H3       1.30300    0.55058    0.57620   1.00
H3       1.18803    0.58984    0.57288   1.00
H3       1.30575    0.62795    0.57820   1.00
H3       1.23287    0.65282    0.57614   1.00
C4       0.99988    0.27085    0.50016   1.00
C4       1.00012    0.22915    0.49984   1.00
C3a      0.96534    0.29254    0.50868   1.00
C3       1.00229    0.20768    0.53490   1.00
C3       1.03408    0.29232    0.49212   1.00
C3a      0.99830    0.20746    0.46431   1.00
C2       1.00006    0.35512    0.50005   1.00
C2       1.00007    0.14488    0.50005   1.00
C3       0.96596    0.33405    0.50841   1.00
C3       1.00215    0.16637    0.53496   1.00
C3       1.03409    0.33363    0.49196   1.00
C3       0.99823    0.16595    0.46498   1.00
C5       0.92713    0.27228    0.51758   1.00
H1       1.00371    0.22309    0.56246   1.00
H1       0.93959    0.35021    0.51471   1.00
H1       1.00363    0.15099    0.56250   1.00
H1       1.06088    0.34901    0.48542   1.00
H1       0.99664    0.14979    0.43791   1.00
C5       0.99579    0.22772    0.42515   1.00
H1       1.06087    0.27691    0.48552   1.00
H2       0.98355    0.20744    0.40304   1.00
H2       0.97520    0.25269    0.42677   1.00
H2       0.90242    0.29256    0.51225   1.00
H2       0.92273    0.24731    0.49740   1.00
N1       1.03421    0.24143    0.41251   1.00
C6       1.06484    0.21927    0.40300   1.00
C6       1.04501    0.27846    0.40721   1.00
C6       1.09578    0.24241    0.39198   1.00
C6       1.08316    0.28005    0.39465   1.00
H3       1.06497    0.18803    0.40429   1.00
H3       1.02642    0.30300    0.41244   1.00
H3       1.12432    0.23287    0.38298   1.00
H3       1.09992    0.30575    0.38819   1.00
N1       0.92612    0.25857    0.55801   1.00
C6       0.92416    0.22154    0.56989   1.00
C6       0.92586    0.28073    0.59009   1.00
C6       0.92315    0.21995    0.61004   1.00
C6       0.92424    0.25759    0.62289   1.00
H3       0.92380    0.19700    0.55058   1.00
H3       0.92712    0.31197    0.58984   1.00
H3       0.92180    0.19425    0.62795   1.00
H3       0.92386    0.26713    0.65282   1.00
C4       1.00016    0.49988    0.27085   1.00
C4       0.99984    0.50012    0.22915   1.00
C3a      1.00868    0.46534    0.29254   1.00
C3       1.03490    0.50229    0.20768   1.00
C3       0.99212    0.53408    0.29232   1.00
C3a      0.96431    0.49830    0.20746   1.00
C2       1.00005    0.50006    0.35512   1.00
C2       1.00005    0.50007    0.14488   1.00
C3       1.00841    0.46596    0.33405   1.00
C3       1.03496    0.50215    0.16637   1.00
C3       0.99196    0.53409    0.33363   1.00
C3       0.96498    0.49823    0.16595   1.00
C5       1.01758    0.42713    0.27228   1.00
H1       1.06246    0.50371    0.22309   1.00
H1       1.01471    0.43959    0.35021   1.00
H1       1.06250    0.50363    0.15099   1.00
H1       0.98542    0.56088    0.34901   1.00
H1       0.93791    0.49664    0.14979   1.00
C5       0.92515    0.49579    0.22772   1.00
H1       0.98552    0.56087    0.27691   1.00
H2       0.90304    0.48355    0.20744   1.00
H2       0.92677    0.47520    0.25269   1.00
H2       1.01225    0.40242    0.29256   1.00
H2       0.99740    0.42273    0.24731   1.00
N1       0.91251    0.53421    0.24143   1.00
C6       0.90300    0.56484    0.21927   1.00
C6       0.90721    0.54501    0.27846   1.00
C6       0.89198    0.59578    0.24241   1.00
C6       0.89465    0.58316    0.28005   1.00
H3       0.90429    0.56497    0.18803   1.00
H3       0.91244    0.52642    0.30300   1.00
H3       0.88298    0.62432    0.23287   1.00
H3       0.88819    0.59992    0.30575   1.00
N1       1.05801    0.42612    0.25857   1.00
C6       1.06989    0.42416    0.22154   1.00
C6       1.09009    0.42586    0.28073   1.00
C6       1.11004    0.42315    0.21995   1.00
C6       1.12289    0.42424    0.25759   1.00
H3       1.05058    0.42380    0.19700   1.00
H3       1.08984    0.42712    0.31197   1.00
H3       1.12795    0.42180    0.19425   1.00
H3       1.15282    0.42386    0.26713   1.00
