data_IRMOF10_SG202_interpen_Ligand8lp_label_r.

_audit_creation_method             'generated by an auxiliary program of Tobunporous'

_symmetry_space_group_name_H-M     'P 1'
_symmetry_Int_Tables_number        1
_symmetry_cell_setting             triclinic

_cell_length_a                    34.2800
_cell_length_b                    34.2800
_cell_length_c                    34.2800
_cell_angle_alpha                 90.0000
_cell_angle_beta                  90.0000
_cell_angle_gamma                 90.0000

loop_
_atom_site_label
_atom_site_fract_x
_atom_site_fract_y
_atom_site_fract_z
_atom_site_occupancy
O1       0.75000    0.75000    0.75000   1.00
Zn1      0.71720    0.78280    0.78280   1.00
Zn1      0.78280    0.71720    0.78280   1.00
Zn1      0.78280    0.78280    0.71720   1.00
Zn1      0.71720    0.71720    0.71720   1.00
O2       0.72650    0.77350    0.83820   1.00
O2       0.72650    0.83820    0.77350   1.00
O2       0.66180    0.77350    0.77350   1.00
O2       0.77350    0.72650    0.83820   1.00
O2       0.83820    0.72650    0.77350   1.00
O2       0.77350    0.66180    0.77350   1.00
O2       0.77350    0.83820    0.72650   1.00
O2       0.83820    0.77350    0.72650   1.00
O2       0.77350    0.77350    0.66180   1.00
O2       0.66180    0.72650    0.72650   1.00
O2       0.72650    0.66180    0.72650   1.00
O2       0.72650    0.72650    0.66180   1.00
C1       0.75000    0.75000    0.85520   1.00
C1       0.75000    0.85520    0.75000   1.00
C1       0.64480    0.75000    0.75000   1.00
C1       0.85520    0.75000    0.75000   1.00
C1       0.75000    0.64480    0.75000   1.00
C1       0.75000    0.75000    0.64480   1.00
O1       0.25000    0.25000    0.75000   1.00
Zn1      0.21720    0.28280    0.78280   1.00
Zn1      0.28280    0.21720    0.78280   1.00
Zn1      0.28280    0.28280    0.71720   1.00
Zn1      0.21720    0.21720    0.71720   1.00
O2       0.22650    0.27350    0.83820   1.00
O2       0.22650    0.33820    0.77350   1.00
O2       0.16180    0.27350    0.77350   1.00
O2       0.27350    0.22650    0.83820   1.00
O2       0.33820    0.22650    0.77350   1.00
O2       0.27350    0.16180    0.77350   1.00
O2       0.27350    0.33820    0.72650   1.00
O2       0.33820    0.27350    0.72650   1.00
O2       0.27350    0.27350    0.66180   1.00
O2       0.16180    0.22650    0.72650   1.00
O2       0.22650    0.16180    0.72650   1.00
O2       0.22650    0.22650    0.66180   1.00
C1       0.25000    0.25000    0.85520   1.00
C1       0.25000    0.35520    0.75000   1.00
C1       0.14480    0.25000    0.75000   1.00
C1       0.35520    0.25000    0.75000   1.00
C1       0.25000    0.14480    0.75000   1.00
C1       0.25000    0.25000    0.64480   1.00
O1       0.25000    0.75000    0.25000   1.00
Zn1      0.21720    0.78280    0.28280   1.00
Zn1      0.28280    0.71720    0.28280   1.00
Zn1      0.28280    0.78280    0.21720   1.00
Zn1      0.21720    0.71720    0.21720   1.00
O2       0.22650    0.77350    0.33820   1.00
O2       0.22650    0.83820    0.27350   1.00
O2       0.16180    0.77350    0.27350   1.00
O2       0.27350    0.72650    0.33820   1.00
O2       0.33820    0.72650    0.27350   1.00
O2       0.27350    0.66180    0.27350   1.00
O2       0.27350    0.83820    0.22650   1.00
O2       0.33820    0.77350    0.22650   1.00
O2       0.27350    0.77350    0.16180   1.00
O2       0.16180    0.72650    0.22650   1.00
O2       0.22650    0.66180    0.22650   1.00
O2       0.22650    0.72650    0.16180   1.00
C1       0.25000    0.75000    0.35520   1.00
C1       0.25000    0.85520    0.25000   1.00
C1       0.14480    0.75000    0.25000   1.00
C1       0.35520    0.75000    0.25000   1.00
C1       0.25000    0.64480    0.25000   1.00
C1       0.25000    0.75000    0.14480   1.00
O1       0.75000    0.25000    0.25000   1.00
Zn1      0.71720    0.28280    0.28280   1.00
Zn1      0.78280    0.21720    0.28280   1.00
Zn1      0.78280    0.28280    0.21720   1.00
Zn1      0.71720    0.21720    0.21720   1.00
O2       0.72650    0.27350    0.33820   1.00
O2       0.72650    0.33820    0.27350   1.00
O2       0.66180    0.27350    0.27350   1.00
O2       0.77350    0.22650    0.33820   1.00
O2       0.83820    0.22650    0.27350   1.00
O2       0.77350    0.16180    0.27350   1.00
O2       0.77350    0.33820    0.22650   1.00
O2       0.83820    0.27350    0.22650   1.00
O2       0.77350    0.27350    0.16180   1.00
O2       0.66180    0.22650    0.22650   1.00
O2       0.72650    0.16180    0.22650   1.00
O2       0.72650    0.22650    0.16180   1.00
C1       0.75000    0.25000    0.35520   1.00
C1       0.75000    0.35520    0.25000   1.00
C1       0.64480    0.25000    0.25000   1.00
C1       0.85520    0.25000    0.25000   1.00
C1       0.75000    0.14480    0.25000   1.00
C1       0.75000    0.25000    0.14480   1.00
O1       0.25000    0.25000    0.25000   1.00
Zn1      0.28280    0.21720    0.21720   1.00
Zn1      0.21720    0.28280    0.21720   1.00
Zn1      0.21720    0.21720    0.28280   1.00
Zn1      0.28280    0.28280    0.28280   1.00
O2       0.27350    0.22650    0.16180   1.00
O2       0.27350    0.16180    0.22650   1.00
O2       0.33820    0.22650    0.22650   1.00
O2       0.22650    0.27350    0.16180   1.00
O2       0.16180    0.27350    0.22650   1.00
O2       0.22650    0.33820    0.22650   1.00
O2       0.22650    0.16180    0.27350   1.00
O2       0.16180    0.22650    0.27350   1.00
O2       0.22650    0.22650    0.33820   1.00
O2       0.33820    0.27350    0.27350   1.00
O2       0.27350    0.33820    0.27350   1.00
O2       0.27350    0.27350    0.33820   1.00
C1       0.25000    0.25000    0.14480   1.00
C1       0.25000    0.14480    0.25000   1.00
C1       0.35520    0.25000    0.25000   1.00
C1       0.14480    0.25000    0.25000   1.00
C1       0.25000    0.35520    0.25000   1.00
C1       0.25000    0.25000    0.35520   1.00
O1       0.75000    0.75000    0.25000   1.00
Zn1      0.78280    0.71720    0.21720   1.00
Zn1      0.71720    0.78280    0.21720   1.00
Zn1      0.71720    0.71720    0.28280   1.00
Zn1      0.78280    0.78280    0.28280   1.00
O2       0.77350    0.72650    0.16180   1.00
O2       0.77350    0.66180    0.22650   1.00
O2       0.83820    0.72650    0.22650   1.00
O2       0.72650    0.77350    0.16180   1.00
O2       0.66180    0.77350    0.22650   1.00
O2       0.72650    0.83820    0.22650   1.00
O2       0.72650    0.66180    0.27350   1.00
O2       0.66180    0.72650    0.27350   1.00
O2       0.72650    0.72650    0.33820   1.00
O2       0.83820    0.77350    0.27350   1.00
O2       0.77350    0.83820    0.27350   1.00
O2       0.77350    0.77350    0.33820   1.00
C1       0.75000    0.75000    0.14480   1.00
C1       0.75000    0.64480    0.25000   1.00
C1       0.85520    0.75000    0.25000   1.00
C1       0.64480    0.75000    0.25000   1.00
C1       0.75000    0.85520    0.25000   1.00
C1       0.75000    0.75000    0.35520   1.00
O1       0.75000    0.25000    0.75000   1.00
Zn1      0.78280    0.21720    0.71720   1.00
Zn1      0.71720    0.28280    0.71720   1.00
Zn1      0.71720    0.21720    0.78280   1.00
Zn1      0.78280    0.28280    0.78280   1.00
O2       0.77350    0.22650    0.66180   1.00
O2       0.77350    0.16180    0.72650   1.00
O2       0.83820    0.22650    0.72650   1.00
O2       0.72650    0.27350    0.66180   1.00
O2       0.66180    0.27350    0.72650   1.00
O2       0.72650    0.33820    0.72650   1.00
O2       0.72650    0.16180    0.77350   1.00
O2       0.66180    0.22650    0.77350   1.00
O2       0.72650    0.22650    0.83820   1.00
O2       0.83820    0.27350    0.77350   1.00
O2       0.77350    0.33820    0.77350   1.00
O2       0.77350    0.27350    0.83820   1.00
C1       0.75000    0.25000    0.64480   1.00
C1       0.75000    0.14480    0.75000   1.00
C1       0.85520    0.25000    0.75000   1.00
C1       0.64480    0.25000    0.75000   1.00
C1       0.75000    0.35520    0.75000   1.00
C1       0.75000    0.25000    0.85520   1.00
O1       0.25000    0.75000    0.75000   1.00
Zn1      0.28280    0.71720    0.71720   1.00
Zn1      0.21720    0.78280    0.71720   1.00
Zn1      0.21720    0.71720    0.78280   1.00
Zn1      0.28280    0.78280    0.78280   1.00
O2       0.27350    0.72650    0.66180   1.00
O2       0.27350    0.66180    0.72650   1.00
O2       0.33820    0.72650    0.72650   1.00
O2       0.22650    0.77350    0.66180   1.00
O2       0.16180    0.77350    0.72650   1.00
O2       0.22650    0.83820    0.72650   1.00
O2       0.22650    0.66180    0.77350   1.00
O2       0.16180    0.72650    0.77350   1.00
O2       0.22650    0.72650    0.83820   1.00
O2       0.33820    0.77350    0.77350   1.00
O2       0.27350    0.83820    0.77350   1.00
O2       0.27350    0.77350    0.83820   1.00
C1       0.25000    0.75000    0.64480   1.00
C1       0.25000    0.64480    0.75000   1.00
C1       0.35520    0.75000    0.75000   1.00
C1       0.14480    0.75000    0.75000   1.00
C1       0.25000    0.85520    0.75000   1.00
C1       0.25000    0.75000    0.85520   1.00
O1       1.00000    1.00000    1.00000   1.00
Zn1      0.96720    1.03280    1.03280   1.00
Zn1      1.03280    0.96720    1.03280   1.00
Zn1      1.03280    1.03280    0.96720   1.00
Zn1      0.96720    0.96720    0.96720   1.00
O2       0.97650    1.02350    1.08820   1.00
O2       0.97650    1.08820    1.02350   1.00
O2       0.91180    1.02350    1.02350   1.00
O2       1.02350    0.97650    1.08820   1.00
O2       1.08820    0.97650    1.02350   1.00
O2       1.02350    0.91180    1.02350   1.00
O2       1.02350    1.08820    0.97650   1.00
O2       1.08820    1.02350    0.97650   1.00
O2       1.02350    1.02350    0.91180   1.00
O2       0.91180    0.97650    0.97650   1.00
O2       0.97650    0.91180    0.97650   1.00
O2       0.97650    0.97650    0.91180   1.00
C1       1.00000    1.00000    1.10520   1.00
C1       1.00000    1.10520    1.00000   1.00
C1       0.89480    1.00000    1.00000   1.00
C1       1.10520    1.00000    1.00000   1.00
C1       1.00000    0.89480    1.00000   1.00
C1       1.00000    1.00000    0.89480   1.00
O1       0.50000    0.50000    1.00000   1.00
Zn1      0.46720    0.53280    1.03280   1.00
Zn1      0.53280    0.46720    1.03280   1.00
Zn1      0.53280    0.53280    0.96720   1.00
Zn1      0.46720    0.46720    0.96720   1.00
O2       0.47650    0.52350    1.08820   1.00
O2       0.47650    0.58820    1.02350   1.00
O2       0.41180    0.52350    1.02350   1.00
O2       0.52350    0.47650    1.08820   1.00
O2       0.58820    0.47650    1.02350   1.00
O2       0.52350    0.41180    1.02350   1.00
O2       0.52350    0.58820    0.97650   1.00
O2       0.58820    0.52350    0.97650   1.00
O2       0.52350    0.52350    0.91180   1.00
O2       0.41180    0.47650    0.97650   1.00
O2       0.47650    0.41180    0.97650   1.00
O2       0.47650    0.47650    0.91180   1.00
C1       0.50000    0.50000    1.10520   1.00
C1       0.50000    0.60520    1.00000   1.00
C1       0.39480    0.50000    1.00000   1.00
C1       0.60520    0.50000    1.00000   1.00
C1       0.50000    0.39480    1.00000   1.00
C1       0.50000    0.50000    0.89480   1.00
O1       0.50000    1.00000    0.50000   1.00
Zn1      0.46720    1.03280    0.53280   1.00
Zn1      0.53280    0.96720    0.53280   1.00
Zn1      0.53280    1.03280    0.46720   1.00
Zn1      0.46720    0.96720    0.46720   1.00
O2       0.47650    1.02350    0.58820   1.00
O2       0.47650    1.08820    0.52350   1.00
O2       0.41180    1.02350    0.52350   1.00
O2       0.52350    0.97650    0.58820   1.00
O2       0.58820    0.97650    0.52350   1.00
O2       0.52350    0.91180    0.52350   1.00
O2       0.52350    1.08820    0.47650   1.00
O2       0.58820    1.02350    0.47650   1.00
O2       0.52350    1.02350    0.41180   1.00
O2       0.41180    0.97650    0.47650   1.00
O2       0.47650    0.91180    0.47650   1.00
O2       0.47650    0.97650    0.41180   1.00
C1       0.50000    1.00000    0.60520   1.00
C1       0.50000    1.10520    0.50000   1.00
C1       0.39480    1.00000    0.50000   1.00
C1       0.60520    1.00000    0.50000   1.00
C1       0.50000    0.89480    0.50000   1.00
C1       0.50000    1.00000    0.39480   1.00
O1       1.00000    0.50000    0.50000   1.00
Zn1      0.96720    0.53280    0.53280   1.00
Zn1      1.03280    0.46720    0.53280   1.00
Zn1      1.03280    0.53280    0.46720   1.00
Zn1      0.96720    0.46720    0.46720   1.00
O2       0.97650    0.52350    0.58820   1.00
O2       0.97650    0.58820    0.52350   1.00
O2       0.91180    0.52350    0.52350   1.00
O2       1.02350    0.47650    0.58820   1.00
O2       1.08820    0.47650    0.52350   1.00
O2       1.02350    0.41180    0.52350   1.00
O2       1.02350    0.58820    0.47650   1.00
O2       1.08820    0.52350    0.47650   1.00
O2       1.02350    0.52350    0.41180   1.00
O2       0.91180    0.47650    0.47650   1.00
O2       0.97650    0.41180    0.47650   1.00
O2       0.97650    0.47650    0.41180   1.00
C1       1.00000    0.50000    0.60520   1.00
C1       1.00000    0.60520    0.50000   1.00
C1       0.89480    0.50000    0.50000   1.00
C1       1.10520    0.50000    0.50000   1.00
C1       1.00000    0.39480    0.50000   1.00
C1       1.00000    0.50000    0.39480   1.00
O1       0.50000    0.50000    0.50000   1.00
Zn1      0.53280    0.46720    0.46720   1.00
Zn1      0.46720    0.53280    0.46720   1.00
Zn1      0.46720    0.46720    0.53280   1.00
Zn1      0.53280    0.53280    0.53280   1.00
O2       0.52350    0.47650    0.41180   1.00
O2       0.52350    0.41180    0.47650   1.00
O2       0.58820    0.47650    0.47650   1.00
O2       0.47650    0.52350    0.41180   1.00
O2       0.41180    0.52350    0.47650   1.00
O2       0.47650    0.58820    0.47650   1.00
O2       0.47650    0.41180    0.52350   1.00
O2       0.41180    0.47650    0.52350   1.00
O2       0.47650    0.47650    0.58820   1.00
O2       0.58820    0.52350    0.52350   1.00
O2       0.52350    0.58820    0.52350   1.00
O2       0.52350    0.52350    0.58820   1.00
C1       0.50000    0.50000    0.39480   1.00
C1       0.50000    0.39480    0.50000   1.00
C1       0.60520    0.50000    0.50000   1.00
C1       0.39480    0.50000    0.50000   1.00
C1       0.50000    0.60520    0.50000   1.00
C1       0.50000    0.50000    0.60520   1.00
O1       1.00000    1.00000    0.50000   1.00
Zn1      1.03280    0.96720    0.46720   1.00
Zn1      0.96720    1.03280    0.46720   1.00
Zn1      0.96720    0.96720    0.53280   1.00
Zn1      1.03280    1.03280    0.53280   1.00
O2       1.02350    0.97650    0.41180   1.00
O2       1.02350    0.91180    0.47650   1.00
O2       1.08820    0.97650    0.47650   1.00
O2       0.97650    1.02350    0.41180   1.00
O2       0.91180    1.02350    0.47650   1.00
O2       0.97650    1.08820    0.47650   1.00
O2       0.97650    0.91180    0.52350   1.00
O2       0.91180    0.97650    0.52350   1.00
O2       0.97650    0.97650    0.58820   1.00
O2       1.08820    1.02350    0.52350   1.00
O2       1.02350    1.08820    0.52350   1.00
O2       1.02350    1.02350    0.58820   1.00
C1       1.00000    1.00000    0.39480   1.00
C1       1.00000    0.89480    0.50000   1.00
C1       1.10520    1.00000    0.50000   1.00
C1       0.89480    1.00000    0.50000   1.00
C1       1.00000    1.10520    0.50000   1.00
C1       1.00000    1.00000    0.60520   1.00
O1       1.00000    0.50000    1.00000   1.00
Zn1      1.03280    0.46720    0.96720   1.00
Zn1      0.96720    0.53280    0.96720   1.00
Zn1      0.96720    0.46720    1.03280   1.00
Zn1      1.03280    0.53280    1.03280   1.00
O2       1.02350    0.47650    0.91180   1.00
O2       1.02350    0.41180    0.97650   1.00
O2       1.08820    0.47650    0.97650   1.00
O2       0.97650    0.52350    0.91180   1.00
O2       0.91180    0.52350    0.97650   1.00
O2       0.97650    0.58820    0.97650   1.00
O2       0.97650    0.41180    1.02350   1.00
O2       0.91180    0.47650    1.02350   1.00
O2       0.97650    0.47650    1.08820   1.00
O2       1.08820    0.52350    1.02350   1.00
O2       1.02350    0.58820    1.02350   1.00
O2       1.02350    0.52350    1.08820   1.00
C1       1.00000    0.50000    0.89480   1.00
C1       1.00000    0.39480    1.00000   1.00
C1       1.10520    0.50000    1.00000   1.00
C1       0.89480    0.50000    1.00000   1.00
C1       1.00000    0.60520    1.00000   1.00
C1       1.00000    0.50000    1.10520   1.00
O1       0.50000    1.00000    1.00000   1.00
Zn1      0.53280    0.96720    0.96720   1.00
Zn1      0.46720    1.03280    0.96720   1.00
Zn1      0.46720    0.96720    1.03280   1.00
Zn1      0.53280    1.03280    1.03280   1.00
O2       0.52350    0.97650    0.91180   1.00
O2       0.52350    0.91180    0.97650   1.00
O2       0.58820    0.97650    0.97650   1.00
O2       0.47650    1.02350    0.91180   1.00
O2       0.41180    1.02350    0.97650   1.00
O2       0.47650    1.08820    0.97650   1.00
O2       0.47650    0.91180    1.02350   1.00
O2       0.41180    0.97650    1.02350   1.00
O2       0.47650    0.97650    1.08820   1.00
O2       0.58820    1.02350    1.02350   1.00
O2       0.52350    1.08820    1.02350   1.00
O2       0.52350    1.02350    1.08820   1.00
C1       0.50000    1.00000    0.89480   1.00
C1       0.50000    0.89480    1.00000   1.00
C1       0.60520    1.00000    1.00000   1.00
C1       0.39480    1.00000    1.00000   1.00
C1       0.50000    1.10520    1.00000   1.00
C1       0.50000    1.00000    1.10520   1.00
C4       0.74993    0.74993    0.97915   1.00
C4       0.75007    0.75007    1.02085   1.00
C3       0.75059    0.71515    0.95708   1.00
C3       0.71552    0.75679    1.04225   1.00
C3       0.74908    0.78540    0.95816   1.00
C3a      0.78489    0.74292    1.04263   1.00
C2       0.75029    0.75148    0.89483   1.00
C2       0.74941    0.74865    1.10517   1.00
C3       0.75078    0.71598    0.91566   1.00
C3       0.71526    0.75606    1.08359   1.00
C3       0.74943    0.78614    0.91680   1.00
C3       0.78398    0.74220    1.08415   1.00
H1       0.75098    0.68727    0.97192   1.00
H1       0.68848    0.76235    1.02685   1.00
H1       0.75137    0.68875    0.89968   1.00
H1       0.68814    0.76125    1.09895   1.00
H1       0.74931    0.81394    0.90179   1.00
H1       0.81053    0.73689    1.10043   1.00
C5       0.82368    0.73676    1.02239   1.00
H1       0.74919    0.81273    0.97401   1.00
H2       0.84656    0.72776    1.04354   1.00
H2       0.82089    0.71253    1.00103   1.00
N1       0.83641    0.77258    1.00292   1.00
C6       0.84303    0.80728    1.02012   1.00
C6       0.84402    0.77673    0.96460   1.00
C6       0.85465    0.83405    0.99243   1.00
C6       0.85526    0.81462    0.95711   1.00
H3       0.83940    0.81298    1.05099   1.00
H3       0.84112    0.75376    0.94309   1.00
H3       0.86190    0.86435    0.99741   1.00
H3       0.86300    0.82673    0.92903   1.00
C4       0.74993    0.97915    0.74993   1.00
C4       0.75007    1.02085    0.75007   1.00
C3       0.71515    0.95708    0.75059   1.00
C3       0.75679    1.04225    0.71552   1.00
C3       0.78540    0.95816    0.74908   1.00
C3a      0.74292    1.04263    0.78489   1.00
C2       0.75148    0.89483    0.75029   1.00
C2       0.74865    1.10517    0.74941   1.00
C3       0.71598    0.91566    0.75078   1.00
C3       0.75606    1.08359    0.71526   1.00
C3       0.78614    0.91680    0.74943   1.00
C3       0.74220    1.08415    0.78398   1.00
H1       0.68727    0.97192    0.75098   1.00
H1       0.76235    1.02685    0.68848   1.00
H1       0.68875    0.89968    0.75137   1.00
H1       0.76125    1.09895    0.68814   1.00
H1       0.81394    0.90179    0.74931   1.00
H1       0.73689    1.10043    0.81053   1.00
C5       0.73676    1.02239    0.82368   1.00
H1       0.81273    0.97401    0.74919   1.00
H2       0.72776    1.04354    0.84656   1.00
H2       0.71253    1.00103    0.82089   1.00
N1       0.77258    1.00292    0.83641   1.00
C6       0.80728    1.02012    0.84303   1.00
C6       0.77673    0.96460    0.84402   1.00
C6       0.83405    0.99243    0.85465   1.00
C6       0.81462    0.95711    0.85526   1.00
H3       0.81298    1.05099    0.83940   1.00
H3       0.75376    0.94309    0.84112   1.00
H3       0.86435    0.99741    0.86190   1.00
H3       0.82673    0.92903    0.86300   1.00
C4       0.52085    0.74993    0.75007   1.00
C4       0.47915    0.75007    0.74993   1.00
C3       0.54292    0.75059    0.78485   1.00
C3       0.45775    0.71552    0.74321   1.00
C3       0.54184    0.74908    0.71460   1.00
C3a      0.45737    0.78489    0.75708   1.00
C2       0.60517    0.75029    0.74852   1.00
C2       0.39483    0.74941    0.75135   1.00
C3       0.58434    0.75078    0.78402   1.00
C3       0.41641    0.71526    0.74394   1.00
C3       0.58320    0.74943    0.71386   1.00
C3       0.41585    0.78398    0.75780   1.00
H1       0.52808    0.75098    0.81273   1.00
H1       0.47315    0.68848    0.73765   1.00
H1       0.60032    0.75137    0.81125   1.00
H1       0.40105    0.68814    0.73875   1.00
H1       0.59821    0.74931    0.68606   1.00
H1       0.39957    0.81053    0.76311   1.00
C5       0.47761    0.82368    0.76324   1.00
H1       0.52599    0.74919    0.68727   1.00
H2       0.45646    0.84656    0.77224   1.00
H2       0.49897    0.82089    0.78747   1.00
N1       0.49708    0.83641    0.72742   1.00
C6       0.47988    0.84303    0.69272   1.00
C6       0.53540    0.84402    0.72327   1.00
C6       0.50757    0.85465    0.66595   1.00
C6       0.54289    0.85526    0.68538   1.00
H3       0.44901    0.83940    0.68702   1.00
H3       0.55691    0.84112    0.74624   1.00
H3       0.50259    0.86190    0.63565   1.00
H3       0.57097    0.86300    0.67327   1.00
C4       0.97915    0.74993    0.74993   1.00
C4       1.02085    0.75007    0.75007   1.00
C3       0.95708    0.75059    0.71515   1.00
C3       1.04225    0.71552    0.75679   1.00
C3       0.95816    0.74908    0.78540   1.00
C3a      1.04263    0.78489    0.74292   1.00
C2       0.89483    0.75029    0.75148   1.00
C2       1.10517    0.74941    0.74865   1.00
C3       0.91566    0.75078    0.71598   1.00
C3       1.08359    0.71526    0.75606   1.00
C3       0.91680    0.74943    0.78614   1.00
C3       1.08415    0.78398    0.74220   1.00
H1       0.97192    0.75098    0.68727   1.00
H1       1.02685    0.68848    0.76235   1.00
H1       0.89968    0.75137    0.68875   1.00
H1       1.09895    0.68814    0.76125   1.00
H1       0.90179    0.74931    0.81394   1.00
H1       1.10043    0.81053    0.73689   1.00
C5       1.02239    0.82368    0.73676   1.00
H1       0.97401    0.74919    0.81273   1.00
H2       1.04354    0.84656    0.72776   1.00
H2       1.00103    0.82089    0.71253   1.00
N1       1.00292    0.83641    0.77258   1.00
C6       1.02012    0.84303    0.80728   1.00
C6       0.96460    0.84402    0.77673   1.00
C6       0.99243    0.85465    0.83405   1.00
C6       0.95711    0.85526    0.81462   1.00
H3       1.05099    0.83940    0.81298   1.00
H3       0.94309    0.84112    0.75376   1.00
H3       0.99741    0.86190    0.86435   1.00
H3       0.92903    0.86300    0.82673   1.00
C4       0.75007    0.52085    0.74993   1.00
C4       0.74993    0.47915    0.75007   1.00
C3       0.78485    0.54292    0.75059   1.00
C3       0.74321    0.45775    0.71552   1.00
C3       0.71460    0.54184    0.74908   1.00
C3a      0.75708    0.45737    0.78489   1.00
C2       0.74852    0.60517    0.75029   1.00
C2       0.75135    0.39483    0.74941   1.00
C3       0.78402    0.58434    0.75078   1.00
C3       0.74394    0.41641    0.71526   1.00
C3       0.71386    0.58320    0.74943   1.00
C3       0.75780    0.41585    0.78398   1.00
H1       0.81273    0.52808    0.75098   1.00
H1       0.73765    0.47315    0.68848   1.00
H1       0.81125    0.60032    0.75137   1.00
H1       0.73875    0.40105    0.68814   1.00
H1       0.68606    0.59821    0.74931   1.00
H1       0.76311    0.39957    0.81053   1.00
C5       0.76324    0.47761    0.82368   1.00
H1       0.68727    0.52599    0.74919   1.00
H2       0.77224    0.45646    0.84656   1.00
H2       0.78747    0.49897    0.82089   1.00
N1       0.72742    0.49708    0.83641   1.00
C6       0.69272    0.47988    0.84303   1.00
C6       0.72327    0.53540    0.84402   1.00
C6       0.66595    0.50757    0.85465   1.00
C6       0.68538    0.54289    0.85526   1.00
H3       0.68702    0.44901    0.83940   1.00
H3       0.74624    0.55691    0.84112   1.00
H3       0.63565    0.50259    0.86190   1.00
H3       0.67327    0.57097    0.86300   1.00
C4       0.74993    0.75007    0.52085   1.00
C4       0.75007    0.74993    0.47915   1.00
C3       0.75059    0.78485    0.54292   1.00
C3       0.71552    0.74321    0.45775   1.00
C3       0.74908    0.71460    0.54184   1.00
C3a      0.78489    0.75708    0.45737   1.00
C2       0.75029    0.74852    0.60517   1.00
C2       0.74941    0.75135    0.39483   1.00
C3       0.75078    0.78402    0.58434   1.00
C3       0.71526    0.74394    0.41641   1.00
C3       0.74943    0.71386    0.58320   1.00
C3       0.78398    0.75780    0.41585   1.00
H1       0.75098    0.81273    0.52808   1.00
H1       0.68848    0.73765    0.47315   1.00
H1       0.75137    0.81125    0.60032   1.00
H1       0.68814    0.73875    0.40105   1.00
H1       0.74931    0.68606    0.59821   1.00
H1       0.81053    0.76311    0.39957   1.00
C5       0.82368    0.76324    0.47761   1.00
H1       0.74919    0.68727    0.52599   1.00
H2       0.84656    0.77224    0.45646   1.00
H2       0.82089    0.78747    0.49897   1.00
N1       0.83641    0.72742    0.49708   1.00
C6       0.84303    0.69272    0.47988   1.00
C6       0.84402    0.72327    0.53540   1.00
C6       0.85465    0.66595    0.50757   1.00
C6       0.85526    0.68538    0.54289   1.00
H3       0.83940    0.68702    0.44901   1.00
H3       0.84112    0.74624    0.55691   1.00
H3       0.86190    0.63565    0.50259   1.00
H3       0.86300    0.67327    0.57097   1.00
C4       0.24993    0.24993    0.97915   1.00
C4       0.25007    0.25007    1.02085   1.00
C3       0.25059    0.21515    0.95708   1.00
C3       0.21552    0.25679    1.04225   1.00
C3       0.24908    0.28540    0.95816   1.00
C3a      0.28489    0.24292    1.04263   1.00
C2       0.25029    0.25148    0.89483   1.00
C2       0.24941    0.24865    1.10517   1.00
C3       0.25078    0.21598    0.91566   1.00
C3       0.21526    0.25606    1.08359   1.00
C3       0.24943    0.28614    0.91680   1.00
C3       0.28398    0.24220    1.08415   1.00
H1       0.25098    0.18727    0.97192   1.00
H1       0.18848    0.26235    1.02685   1.00
H1       0.25137    0.18875    0.89968   1.00
H1       0.18814    0.26125    1.09895   1.00
H1       0.24931    0.31394    0.90179   1.00
H1       0.31053    0.23689    1.10043   1.00
C5       0.32368    0.23676    1.02239   1.00
H1       0.24919    0.31273    0.97401   1.00
H2       0.34656    0.22776    1.04354   1.00
H2       0.32089    0.21253    1.00103   1.00
N1       0.33641    0.27258    1.00292   1.00
C6       0.34303    0.30728    1.02012   1.00
C6       0.34402    0.27673    0.96460   1.00
C6       0.35465    0.33405    0.99243   1.00
C6       0.35526    0.31462    0.95711   1.00
H3       0.33940    0.31298    1.05099   1.00
H3       0.34112    0.25376    0.94309   1.00
H3       0.36190    0.36435    0.99741   1.00
H3       0.36300    0.32673    0.92903   1.00
C4       0.24993    0.47915    0.74993   1.00
C4       0.25007    0.52085    0.75007   1.00
C3       0.21515    0.45708    0.75059   1.00
C3       0.25679    0.54225    0.71552   1.00
C3       0.28540    0.45816    0.74908   1.00
C3a      0.24292    0.54263    0.78489   1.00
C2       0.25148    0.39483    0.75029   1.00
C2       0.24865    0.60517    0.74941   1.00
C3       0.21598    0.41566    0.75078   1.00
C3       0.25606    0.58359    0.71526   1.00
C3       0.28614    0.41680    0.74943   1.00
C3       0.24220    0.58415    0.78398   1.00
H1       0.18727    0.47192    0.75098   1.00
H1       0.26235    0.52685    0.68848   1.00
H1       0.18875    0.39968    0.75137   1.00
H1       0.26125    0.59895    0.68814   1.00
H1       0.31394    0.40179    0.74931   1.00
H1       0.23689    0.60043    0.81053   1.00
C5       0.23676    0.52239    0.82368   1.00
H1       0.31273    0.47401    0.74919   1.00
H2       0.22776    0.54354    0.84656   1.00
H2       0.21253    0.50103    0.82089   1.00
N1       0.27258    0.50292    0.83641   1.00
C6       0.30728    0.52012    0.84303   1.00
C6       0.27673    0.46460    0.84402   1.00
C6       0.33405    0.49243    0.85465   1.00
C6       0.31462    0.45711    0.85526   1.00
H3       0.31298    0.55099    0.83940   1.00
H3       0.25376    0.44309    0.84112   1.00
H3       0.36435    0.49741    0.86190   1.00
H3       0.32673    0.42903    0.86300   1.00
C4       0.02085    0.24993    0.75007   1.00
C4       -0.02085   0.25007    0.74993   1.00
C3       0.04292    0.25059    0.78485   1.00
C3       -0.04225   0.21552    0.74321   1.00
C3       0.04184    0.24908    0.71460   1.00
C3a      -0.04263   0.28489    0.75708   1.00
C2       0.10517    0.25029    0.74852   1.00
C2       -0.10517   0.24941    0.75135   1.00
C3       0.08434    0.25078    0.78402   1.00
C3       -0.08359   0.21526    0.74394   1.00
C3       0.08320    0.24943    0.71386   1.00
C3       -0.08415   0.28398    0.75780   1.00
H1       0.02808    0.25098    0.81273   1.00
H1       -0.02685   0.18848    0.73765   1.00
H1       0.10032    0.25137    0.81125   1.00
H1       -0.09895   0.18814    0.73875   1.00
H1       0.09821    0.24931    0.68606   1.00
H1       -0.10043   0.31053    0.76311   1.00
C5       -0.02239   0.32368    0.76324   1.00
H1       0.02599    0.24919    0.68727   1.00
H2       -0.04354   0.34656    0.77224   1.00
H2       -0.00103   0.32089    0.78747   1.00
N1       -0.00292   0.33641    0.72742   1.00
C6       -0.02012   0.34303    0.69272   1.00
C6       0.03540    0.34402    0.72327   1.00
C6       0.00757    0.35465    0.66595   1.00
C6       0.04289    0.35526    0.68538   1.00
H3       -0.05099   0.33940    0.68702   1.00
H3       0.05691    0.34112    0.74624   1.00
H3       0.00259    0.36190    0.63565   1.00
H3       0.07097    0.36300    0.67327   1.00
C4       0.47915    0.24993    0.74993   1.00
C4       0.52085    0.25007    0.75007   1.00
C3       0.45708    0.25059    0.71515   1.00
C3       0.54225    0.21552    0.75679   1.00
C3       0.45816    0.24908    0.78540   1.00
C3a      0.54263    0.28489    0.74292   1.00
C2       0.39483    0.25029    0.75148   1.00
C2       0.60517    0.24941    0.74865   1.00
C3       0.41566    0.25078    0.71598   1.00
C3       0.58359    0.21526    0.75606   1.00
C3       0.41680    0.24943    0.78614   1.00
C3       0.58415    0.28398    0.74220   1.00
H1       0.47192    0.25098    0.68727   1.00
H1       0.52685    0.18848    0.76235   1.00
H1       0.39968    0.25137    0.68875   1.00
H1       0.59895    0.18814    0.76125   1.00
H1       0.40179    0.24931    0.81394   1.00
H1       0.60043    0.31053    0.73689   1.00
C5       0.52239    0.32368    0.73676   1.00
H1       0.47401    0.24919    0.81273   1.00
H2       0.54354    0.34656    0.72776   1.00
H2       0.50103    0.32089    0.71253   1.00
N1       0.50292    0.33641    0.77258   1.00
C6       0.52012    0.34303    0.80728   1.00
C6       0.46460    0.34402    0.77673   1.00
C6       0.49243    0.35465    0.83405   1.00
C6       0.45711    0.35526    0.81462   1.00
H3       0.55099    0.33940    0.81298   1.00
H3       0.44309    0.34112    0.75376   1.00
H3       0.49741    0.36190    0.86435   1.00
H3       0.42903    0.36300    0.82673   1.00
C4       0.25007    0.02085    0.74993   1.00
C4       0.24993    -0.02085   0.75007   1.00
C3       0.28485    0.04292    0.75059   1.00
C3       0.24321    -0.04225   0.71552   1.00
C3       0.21460    0.04184    0.74908   1.00
C3a      0.25708    -0.04263   0.78489   1.00
C2       0.24852    0.10517    0.75029   1.00
C2       0.25135    -0.10517   0.74941   1.00
C3       0.28402    0.08434    0.75078   1.00
C3       0.24394    -0.08359   0.71526   1.00
C3       0.21386    0.08320    0.74943   1.00
C3       0.25780    -0.08415   0.78398   1.00
H1       0.31273    0.02808    0.75098   1.00
H1       0.23765    -0.02685   0.68848   1.00
H1       0.31125    0.10032    0.75137   1.00
H1       0.23875    -0.09895   0.68814   1.00
H1       0.18606    0.09821    0.74931   1.00
H1       0.26311    -0.10043   0.81053   1.00
C5       0.26324    -0.02239   0.82368   1.00
H1       0.18727    0.02599    0.74919   1.00
H2       0.27224    -0.04354   0.84656   1.00
H2       0.28747    -0.00103   0.82089   1.00
N1       0.22742    -0.00292   0.83641   1.00
C6       0.19272    -0.02012   0.84303   1.00
C6       0.22327    0.03540    0.84402   1.00
C6       0.16595    0.00757    0.85465   1.00
C6       0.18538    0.04289    0.85526   1.00
H3       0.18702    -0.05099   0.83940   1.00
H3       0.24624    0.05691    0.84112   1.00
H3       0.13565    0.00259    0.86190   1.00
H3       0.17327    0.07097    0.86300   1.00
C4       0.24993    0.25007    0.52085   1.00
C4       0.25007    0.24993    0.47915   1.00
C3       0.25059    0.28485    0.54292   1.00
C3       0.21552    0.24321    0.45775   1.00
C3       0.24908    0.21460    0.54184   1.00
C3a      0.28489    0.25708    0.45737   1.00
C2       0.25029    0.24852    0.60517   1.00
C2       0.24941    0.25135    0.39483   1.00
C3       0.25078    0.28402    0.58434   1.00
C3       0.21526    0.24394    0.41641   1.00
C3       0.24943    0.21386    0.58320   1.00
C3       0.28398    0.25780    0.41585   1.00
H1       0.25098    0.31273    0.52808   1.00
H1       0.18848    0.23765    0.47315   1.00
H1       0.25137    0.31125    0.60032   1.00
H1       0.18814    0.23875    0.40105   1.00
H1       0.24931    0.18606    0.59821   1.00
H1       0.31053    0.26311    0.39957   1.00
C5       0.32368    0.26324    0.47761   1.00
H1       0.24919    0.18727    0.52599   1.00
H2       0.34656    0.27224    0.45646   1.00
H2       0.32089    0.28747    0.49897   1.00
N1       0.33641    0.22742    0.49708   1.00
C6       0.34303    0.19272    0.47988   1.00
C6       0.34402    0.22327    0.53540   1.00
C6       0.35465    0.16595    0.50757   1.00
C6       0.35526    0.18538    0.54289   1.00
H3       0.33940    0.18702    0.44901   1.00
H3       0.34112    0.24624    0.55691   1.00
H3       0.36190    0.13565    0.50259   1.00
H3       0.36300    0.17327    0.57097   1.00
C4       0.24993    0.74993    0.47915   1.00
C4       0.25007    0.75007    0.52085   1.00
C3       0.25059    0.71515    0.45708   1.00
C3       0.21552    0.75679    0.54225   1.00
C3       0.24908    0.78540    0.45816   1.00
C3a      0.28489    0.74292    0.54263   1.00
C2       0.25029    0.75148    0.39483   1.00
C2       0.24941    0.74865    0.60517   1.00
C3       0.25078    0.71598    0.41566   1.00
C3       0.21526    0.75606    0.58359   1.00
C3       0.24943    0.78614    0.41680   1.00
C3       0.28398    0.74220    0.58415   1.00
H1       0.25098    0.68727    0.47192   1.00
H1       0.18848    0.76235    0.52685   1.00
H1       0.25137    0.68875    0.39968   1.00
H1       0.18814    0.76125    0.59895   1.00
H1       0.24931    0.81394    0.40179   1.00
H1       0.31053    0.73689    0.60043   1.00
C5       0.32368    0.73676    0.52239   1.00
H1       0.24919    0.81273    0.47401   1.00
H2       0.34656    0.72776    0.54354   1.00
H2       0.32089    0.71253    0.50103   1.00
N1       0.33641    0.77258    0.50292   1.00
C6       0.34303    0.80728    0.52012   1.00
C6       0.34402    0.77673    0.46460   1.00
C6       0.35465    0.83405    0.49243   1.00
C6       0.35526    0.81462    0.45711   1.00
H3       0.33940    0.81298    0.55099   1.00
H3       0.34112    0.75376    0.44309   1.00
H3       0.36190    0.86435    0.49741   1.00
H3       0.36300    0.82673    0.42903   1.00
C4       0.24993    0.97915    0.24993   1.00
C4       0.25007    1.02085    0.25007   1.00
C3       0.21515    0.95708    0.25059   1.00
C3       0.25679    1.04225    0.21552   1.00
C3       0.28540    0.95816    0.24908   1.00
C3a      0.24292    1.04263    0.28489   1.00
C2       0.25148    0.89483    0.25029   1.00
C2       0.24865    1.10517    0.24941   1.00
C3       0.21598    0.91566    0.25078   1.00
C3       0.25606    1.08359    0.21526   1.00
C3       0.28614    0.91680    0.24943   1.00
C3       0.24220    1.08415    0.28398   1.00
H1       0.18727    0.97192    0.25098   1.00
H1       0.26235    1.02685    0.18848   1.00
H1       0.18875    0.89968    0.25137   1.00
H1       0.26125    1.09895    0.18814   1.00
H1       0.31394    0.90179    0.24931   1.00
H1       0.23689    1.10043    0.31053   1.00
C5       0.23676    1.02239    0.32368   1.00
H1       0.31273    0.97401    0.24919   1.00
H2       0.22776    1.04354    0.34656   1.00
H2       0.21253    1.00103    0.32089   1.00
N1       0.27258    1.00292    0.33641   1.00
C6       0.30728    1.02012    0.34303   1.00
C6       0.27673    0.96460    0.34402   1.00
C6       0.33405    0.99243    0.35465   1.00
C6       0.31462    0.95711    0.35526   1.00
H3       0.31298    1.05099    0.33940   1.00
H3       0.25376    0.94309    0.34112   1.00
H3       0.36435    0.99741    0.36190   1.00
H3       0.32673    0.92903    0.36300   1.00
C4       0.02085    0.74993    0.25007   1.00
C4       -0.02085   0.75007    0.24993   1.00
C3       0.04292    0.75059    0.28485   1.00
C3       -0.04225   0.71552    0.24321   1.00
C3       0.04184    0.74908    0.21460   1.00
C3a      -0.04263   0.78489    0.25708   1.00
C2       0.10517    0.75029    0.24852   1.00
C2       -0.10517   0.74941    0.25135   1.00
C3       0.08434    0.75078    0.28402   1.00
C3       -0.08359   0.71526    0.24394   1.00
C3       0.08320    0.74943    0.21386   1.00
C3       -0.08415   0.78398    0.25780   1.00
H1       0.02808    0.75098    0.31273   1.00
H1       -0.02685   0.68848    0.23765   1.00
H1       0.10032    0.75137    0.31125   1.00
H1       -0.09895   0.68814    0.23875   1.00
H1       0.09821    0.74931    0.18606   1.00
H1       -0.10043   0.81053    0.26311   1.00
C5       -0.02239   0.82368    0.26324   1.00
H1       0.02599    0.74919    0.18727   1.00
H2       -0.04354   0.84656    0.27224   1.00
H2       -0.00103   0.82089    0.28747   1.00
N1       -0.00292   0.83641    0.22742   1.00
C6       -0.02012   0.84303    0.19272   1.00
C6       0.03540    0.84402    0.22327   1.00
C6       0.00757    0.85465    0.16595   1.00
C6       0.04289    0.85526    0.18538   1.00
H3       -0.05099   0.83940    0.18702   1.00
H3       0.05691    0.84112    0.24624   1.00
H3       0.00259    0.86190    0.13565   1.00
H3       0.07097    0.86300    0.17327   1.00
C4       0.47915    0.74993    0.24993   1.00
C4       0.52085    0.75007    0.25007   1.00
C3       0.45708    0.75059    0.21515   1.00
C3       0.54225    0.71552    0.25679   1.00
C3       0.45816    0.74908    0.28540   1.00
C3a      0.54263    0.78489    0.24292   1.00
C2       0.39483    0.75029    0.25148   1.00
C2       0.60517    0.74941    0.24865   1.00
C3       0.41566    0.75078    0.21598   1.00
C3       0.58359    0.71526    0.25606   1.00
C3       0.41680    0.74943    0.28614   1.00
C3       0.58415    0.78398    0.24220   1.00
H1       0.47192    0.75098    0.18727   1.00
H1       0.52685    0.68848    0.26235   1.00
H1       0.39968    0.75137    0.18875   1.00
H1       0.59895    0.68814    0.26125   1.00
H1       0.40179    0.74931    0.31394   1.00
H1       0.60043    0.81053    0.23689   1.00
C5       0.52239    0.82368    0.23676   1.00
H1       0.47401    0.74919    0.31273   1.00
H2       0.54354    0.84656    0.22776   1.00
H2       0.50103    0.82089    0.21253   1.00
N1       0.50292    0.83641    0.27258   1.00
C6       0.52012    0.84303    0.30728   1.00
C6       0.46460    0.84402    0.27673   1.00
C6       0.49243    0.85465    0.33405   1.00
C6       0.45711    0.85526    0.31462   1.00
H3       0.55099    0.83940    0.31298   1.00
H3       0.44309    0.84112    0.25376   1.00
H3       0.49741    0.86190    0.36435   1.00
H3       0.42903    0.86300    0.32673   1.00
C4       0.25007    0.52085    0.24993   1.00
C4       0.24993    0.47915    0.25007   1.00
C3       0.28485    0.54292    0.25059   1.00
C3       0.24321    0.45775    0.21552   1.00
C3       0.21460    0.54184    0.24908   1.00
C3a      0.25708    0.45737    0.28489   1.00
C2       0.24852    0.60517    0.25029   1.00
C2       0.25135    0.39483    0.24941   1.00
C3       0.28402    0.58434    0.25078   1.00
C3       0.24394    0.41641    0.21526   1.00
C3       0.21386    0.58320    0.24943   1.00
C3       0.25780    0.41585    0.28398   1.00
H1       0.31273    0.52808    0.25098   1.00
H1       0.23765    0.47315    0.18848   1.00
H1       0.31125    0.60032    0.25137   1.00
H1       0.23875    0.40105    0.18814   1.00
H1       0.18606    0.59821    0.24931   1.00
H1       0.26311    0.39957    0.31053   1.00
C5       0.26324    0.47761    0.32368   1.00
H1       0.18727    0.52599    0.24919   1.00
H2       0.27224    0.45646    0.34656   1.00
H2       0.28747    0.49897    0.32089   1.00
N1       0.22742    0.49708    0.33641   1.00
C6       0.19272    0.47988    0.34303   1.00
C6       0.22327    0.53540    0.34402   1.00
C6       0.16595    0.50757    0.35465   1.00
C6       0.18538    0.54289    0.35526   1.00
H3       0.18702    0.44901    0.33940   1.00
H3       0.24624    0.55691    0.34112   1.00
H3       0.13565    0.50259    0.36190   1.00
H3       0.17327    0.57097    0.36300   1.00
C4       0.24993    0.75007    0.02085   1.00
C4       0.25007    0.74993    -0.02085   1.00
C3       0.25059    0.78485    0.04292   1.00
C3       0.21552    0.74321    -0.04225   1.00
C3       0.24908    0.71460    0.04184   1.00
C3a      0.28489    0.75708    -0.04263   1.00
C2       0.25029    0.74852    0.10517   1.00
C2       0.24941    0.75135    -0.10517   1.00
C3       0.25078    0.78402    0.08434   1.00
C3       0.21526    0.74394    -0.08359   1.00
C3       0.24943    0.71386    0.08320   1.00
C3       0.28398    0.75780    -0.08415   1.00
H1       0.25098    0.81273    0.02808   1.00
H1       0.18848    0.73765    -0.02685   1.00
H1       0.25137    0.81125    0.10032   1.00
H1       0.18814    0.73875    -0.09895   1.00
H1       0.24931    0.68606    0.09821   1.00
H1       0.31053    0.76311    -0.10043   1.00
C5       0.32368    0.76324    -0.02239   1.00
H1       0.24919    0.68727    0.02599   1.00
H2       0.34656    0.77224    -0.04354   1.00
H2       0.32089    0.78747    -0.00103   1.00
N1       0.33641    0.72742    -0.00292   1.00
C6       0.34303    0.69272    -0.02012   1.00
C6       0.34402    0.72327    0.03540   1.00
C6       0.35465    0.66595    0.00757   1.00
C6       0.35526    0.68538    0.04289   1.00
H3       0.33940    0.68702    -0.05099   1.00
H3       0.34112    0.74624    0.05691   1.00
H3       0.36190    0.63565    0.00259   1.00
H3       0.36300    0.67327    0.07097   1.00
C4       0.74993    0.24993    0.47915   1.00
C4       0.75007    0.25007    0.52085   1.00
C3       0.75059    0.21515    0.45708   1.00
C3       0.71552    0.25679    0.54225   1.00
C3       0.74908    0.28540    0.45816   1.00
C3a      0.78489    0.24292    0.54263   1.00
C2       0.75029    0.25148    0.39483   1.00
C2       0.74941    0.24865    0.60517   1.00
C3       0.75078    0.21598    0.41566   1.00
C3       0.71526    0.25606    0.58359   1.00
C3       0.74943    0.28614    0.41680   1.00
C3       0.78398    0.24220    0.58415   1.00
H1       0.75098    0.18727    0.47192   1.00
H1       0.68848    0.26235    0.52685   1.00
H1       0.75137    0.18875    0.39968   1.00
H1       0.68814    0.26125    0.59895   1.00
H1       0.74931    0.31394    0.40179   1.00
H1       0.81053    0.23689    0.60043   1.00
C5       0.82368    0.23676    0.52239   1.00
H1       0.74919    0.31273    0.47401   1.00
H2       0.84656    0.22776    0.54354   1.00
H2       0.82089    0.21253    0.50103   1.00
N1       0.83641    0.27258    0.50292   1.00
C6       0.84303    0.30728    0.52012   1.00
C6       0.84402    0.27673    0.46460   1.00
C6       0.85465    0.33405    0.49243   1.00
C6       0.85526    0.31462    0.45711   1.00
H3       0.83940    0.31298    0.55099   1.00
H3       0.84112    0.25376    0.44309   1.00
H3       0.86190    0.36435    0.49741   1.00
H3       0.86300    0.32673    0.42903   1.00
C4       0.74993    0.47915    0.24993   1.00
C4       0.75007    0.52085    0.25007   1.00
C3       0.71515    0.45708    0.25059   1.00
C3       0.75679    0.54225    0.21552   1.00
C3       0.78540    0.45816    0.24908   1.00
C3a      0.74292    0.54263    0.28489   1.00
C2       0.75148    0.39483    0.25029   1.00
C2       0.74865    0.60517    0.24941   1.00
C3       0.71598    0.41566    0.25078   1.00
C3       0.75606    0.58359    0.21526   1.00
C3       0.78614    0.41680    0.24943   1.00
C3       0.74220    0.58415    0.28398   1.00
H1       0.68727    0.47192    0.25098   1.00
H1       0.76235    0.52685    0.18848   1.00
H1       0.68875    0.39968    0.25137   1.00
H1       0.76125    0.59895    0.18814   1.00
H1       0.81394    0.40179    0.24931   1.00
H1       0.73689    0.60043    0.31053   1.00
C5       0.73676    0.52239    0.32368   1.00
H1       0.81273    0.47401    0.24919   1.00
H2       0.72776    0.54354    0.34656   1.00
H2       0.71253    0.50103    0.32089   1.00
N1       0.77258    0.50292    0.33641   1.00
C6       0.80728    0.52012    0.34303   1.00
C6       0.77673    0.46460    0.34402   1.00
C6       0.83405    0.49243    0.35465   1.00
C6       0.81462    0.45711    0.35526   1.00
H3       0.81298    0.55099    0.33940   1.00
H3       0.75376    0.44309    0.34112   1.00
H3       0.86435    0.49741    0.36190   1.00
H3       0.82673    0.42903    0.36300   1.00
C4       0.52085    0.24993    0.25007   1.00
C4       0.47915    0.25007    0.24993   1.00
C3       0.54292    0.25059    0.28485   1.00
C3       0.45775    0.21552    0.24321   1.00
C3       0.54184    0.24908    0.21460   1.00
C3a      0.45737    0.28489    0.25708   1.00
C2       0.60517    0.25029    0.24852   1.00
C2       0.39483    0.24941    0.25135   1.00
C3       0.58434    0.25078    0.28402   1.00
C3       0.41641    0.21526    0.24394   1.00
C3       0.58320    0.24943    0.21386   1.00
C3       0.41585    0.28398    0.25780   1.00
H1       0.52808    0.25098    0.31273   1.00
H1       0.47315    0.18848    0.23765   1.00
H1       0.60032    0.25137    0.31125   1.00
H1       0.40105    0.18814    0.23875   1.00
H1       0.59821    0.24931    0.18606   1.00
H1       0.39957    0.31053    0.26311   1.00
C5       0.47761    0.32368    0.26324   1.00
H1       0.52599    0.24919    0.18727   1.00
H2       0.45646    0.34656    0.27224   1.00
H2       0.49897    0.32089    0.28747   1.00
N1       0.49708    0.33641    0.22742   1.00
C6       0.47988    0.34303    0.19272   1.00
C6       0.53540    0.34402    0.22327   1.00
C6       0.50757    0.35465    0.16595   1.00
C6       0.54289    0.35526    0.18538   1.00
H3       0.44901    0.33940    0.18702   1.00
H3       0.55691    0.34112    0.24624   1.00
H3       0.50259    0.36190    0.13565   1.00
H3       0.57097    0.36300    0.17327   1.00
C4       0.97915    0.24993    0.24993   1.00
C4       1.02085    0.25007    0.25007   1.00
C3       0.95708    0.25059    0.21515   1.00
C3       1.04225    0.21552    0.25679   1.00
C3       0.95816    0.24908    0.28540   1.00
C3a      1.04263    0.28489    0.24292   1.00
C2       0.89483    0.25029    0.25148   1.00
C2       1.10517    0.24941    0.24865   1.00
C3       0.91566    0.25078    0.21598   1.00
C3       1.08359    0.21526    0.25606   1.00
C3       0.91680    0.24943    0.28614   1.00
C3       1.08415    0.28398    0.24220   1.00
H1       0.97192    0.25098    0.18727   1.00
H1       1.02685    0.18848    0.26235   1.00
H1       0.89968    0.25137    0.18875   1.00
H1       1.09895    0.18814    0.26125   1.00
H1       0.90179    0.24931    0.31394   1.00
H1       1.10043    0.31053    0.23689   1.00
C5       1.02239    0.32368    0.23676   1.00
H1       0.97401    0.24919    0.31273   1.00
H2       1.04354    0.34656    0.22776   1.00
H2       1.00103    0.32089    0.21253   1.00
N1       1.00292    0.33641    0.27258   1.00
C6       1.02012    0.34303    0.30728   1.00
C6       0.96460    0.34402    0.27673   1.00
C6       0.99243    0.35465    0.33405   1.00
C6       0.95711    0.35526    0.31462   1.00
H3       1.05099    0.33940    0.31298   1.00
H3       0.94309    0.34112    0.25376   1.00
H3       0.99741    0.36190    0.36435   1.00
H3       0.92903    0.36300    0.32673   1.00
C4       0.75007    0.02085    0.24993   1.00
C4       0.74993    -0.02085   0.25007   1.00
C3       0.78485    0.04292    0.25059   1.00
C3       0.74321    -0.04225   0.21552   1.00
C3       0.71460    0.04184    0.24908   1.00
C3a      0.75708    -0.04263   0.28489   1.00
C2       0.74852    0.10517    0.25029   1.00
C2       0.75135    -0.10517   0.24941   1.00
C3       0.78402    0.08434    0.25078   1.00
C3       0.74394    -0.08359   0.21526   1.00
C3       0.71386    0.08320    0.24943   1.00
C3       0.75780    -0.08415   0.28398   1.00
H1       0.81273    0.02808    0.25098   1.00
H1       0.73765    -0.02685   0.18848   1.00
H1       0.81125    0.10032    0.25137   1.00
H1       0.73875    -0.09895   0.18814   1.00
H1       0.68606    0.09821    0.24931   1.00
H1       0.76311    -0.10043   0.31053   1.00
C5       0.76324    -0.02239   0.32368   1.00
H1       0.68727    0.02599    0.24919   1.00
H2       0.77224    -0.04354   0.34656   1.00
H2       0.78747    -0.00103   0.32089   1.00
N1       0.72742    -0.00292   0.33641   1.00
C6       0.69272    -0.02012   0.34303   1.00
C6       0.72327    0.03540    0.34402   1.00
C6       0.66595    0.00757    0.35465   1.00
C6       0.68538    0.04289    0.35526   1.00
H3       0.68702    -0.05099   0.33940   1.00
H3       0.74624    0.05691    0.34112   1.00
H3       0.63565    0.00259    0.36190   1.00
H3       0.67327    0.07097    0.36300   1.00
C4       0.74993    0.25007    0.02085   1.00
C4       0.75007    0.24993    -0.02085   1.00
C3       0.75059    0.28485    0.04292   1.00
C3       0.71552    0.24321    -0.04225   1.00
C3       0.74908    0.21460    0.04184   1.00
C3a      0.78489    0.25708    -0.04263   1.00
C2       0.75029    0.24852    0.10517   1.00
C2       0.74941    0.25135    -0.10517   1.00
C3       0.75078    0.28402    0.08434   1.00
C3       0.71526    0.24394    -0.08359   1.00
C3       0.74943    0.21386    0.08320   1.00
C3       0.78398    0.25780    -0.08415   1.00
H1       0.75098    0.31273    0.02808   1.00
H1       0.68848    0.23765    -0.02685   1.00
H1       0.75137    0.31125    0.10032   1.00
H1       0.68814    0.23875    -0.09895   1.00
H1       0.74931    0.18606    0.09821   1.00
H1       0.81053    0.26311    -0.10043   1.00
C5       0.82368    0.26324    -0.02239   1.00
H1       0.74919    0.18727    0.02599   1.00
H2       0.84656    0.27224    -0.04354   1.00
H2       0.82089    0.28747    -0.00103   1.00
N1       0.83641    0.22742    -0.00292   1.00
C6       0.84303    0.19272    -0.02012   1.00
C6       0.84402    0.22327    0.03540   1.00
C6       0.85465    0.16595    0.00757   1.00
C6       0.85526    0.18538    0.04289   1.00
H3       0.83940    0.18702    -0.05099   1.00
H3       0.84112    0.24624    0.05691   1.00
H3       0.86190    0.13565    0.00259   1.00
H3       0.86300    0.17327    0.07097   1.00
C4       0.99993    0.99993    1.22915   1.00
C4       1.00007    1.00007    1.27085   1.00
C3       1.00059    0.96515    1.20708   1.00
C3       0.96552    1.00679    1.29225   1.00
C3       0.99908    1.03540    1.20816   1.00
C3a      1.03489    0.99292    1.29263   1.00
C2       1.00029    1.00148    1.14483   1.00
C2       0.99941    0.99865    1.35517   1.00
C3       1.00078    0.96598    1.16566   1.00
C3       0.96526    1.00606    1.33359   1.00
C3       0.99943    1.03614    1.16680   1.00
C3       1.03398    0.99220    1.33415   1.00
H1       1.00098    0.93727    1.22192   1.00
H1       0.93848    1.01235    1.27685   1.00
H1       1.00137    0.93875    1.14968   1.00
H1       0.93814    1.01125    1.34895   1.00
H1       0.99931    1.06394    1.15179   1.00
H1       1.06053    0.98689    1.35043   1.00
C5       1.07368    0.98676    1.27239   1.00
H1       0.99919    1.06273    1.22401   1.00
H2       1.09656    0.97776    1.29354   1.00
H2       1.07089    0.96253    1.25103   1.00
N1       1.08641    1.02258    1.25292   1.00
C6       1.09303    1.05728    1.27012   1.00
C6       1.09402    1.02673    1.21460   1.00
C6       1.10465    1.08405    1.24243   1.00
C6       1.10526    1.06462    1.20711   1.00
H3       1.08940    1.06298    1.30099   1.00
H3       1.09112    1.00376    1.19309   1.00
H3       1.11190    1.11435    1.24741   1.00
H3       1.11300    1.07673    1.17903   1.00
C4       0.99993    1.22915    0.99993   1.00
C4       1.00007    1.27085    1.00007   1.00
C3       0.96515    1.20708    1.00059   1.00
C3       1.00679    1.29225    0.96552   1.00
C3       1.03540    1.20816    0.99908   1.00
C3a      0.99292    1.29263    1.03489   1.00
C2       1.00148    1.14483    1.00029   1.00
C2       0.99865    1.35517    0.99941   1.00
C3       0.96598    1.16566    1.00078   1.00
C3       1.00606    1.33359    0.96526   1.00
C3       1.03614    1.16680    0.99943   1.00
C3       0.99220    1.33415    1.03398   1.00
H1       0.93727    1.22192    1.00098   1.00
H1       1.01235    1.27685    0.93848   1.00
H1       0.93875    1.14968    1.00137   1.00
H1       1.01125    1.34895    0.93814   1.00
H1       1.06394    1.15179    0.99931   1.00
H1       0.98689    1.35043    1.06053   1.00
C5       0.98676    1.27239    1.07368   1.00
H1       1.06273    1.22401    0.99919   1.00
H2       0.97776    1.29354    1.09656   1.00
H2       0.96253    1.25103    1.07089   1.00
N1       1.02258    1.25292    1.08641   1.00
C6       1.05728    1.27012    1.09303   1.00
C6       1.02673    1.21460    1.09402   1.00
C6       1.08405    1.24243    1.10465   1.00
C6       1.06462    1.20711    1.10526   1.00
H3       1.06298    1.30099    1.08940   1.00
H3       1.00376    1.19309    1.09112   1.00
H3       1.11435    1.24741    1.11190   1.00
H3       1.07673    1.17903    1.11300   1.00
C4       0.77085    0.99993    1.00007   1.00
C4       0.72915    1.00007    0.99993   1.00
C3       0.79292    1.00059    1.03485   1.00
C3       0.70775    0.96552    0.99321   1.00
C3       0.79184    0.99908    0.96460   1.00
C3a      0.70737    1.03489    1.00708   1.00
C2       0.85517    1.00029    0.99852   1.00
C2       0.64483    0.99941    1.00135   1.00
C3       0.83434    1.00078    1.03402   1.00
C3       0.66641    0.96526    0.99394   1.00
C3       0.83320    0.99943    0.96386   1.00
C3       0.66585    1.03398    1.00780   1.00
H1       0.77808    1.00098    1.06273   1.00
H1       0.72315    0.93848    0.98765   1.00
H1       0.85032    1.00137    1.06125   1.00
H1       0.65105    0.93814    0.98875   1.00
H1       0.84821    0.99931    0.93606   1.00
H1       0.64957    1.06053    1.01311   1.00
C5       0.72761    1.07368    1.01324   1.00
H1       0.77599    0.99919    0.93727   1.00
H2       0.70646    1.09656    1.02224   1.00
H2       0.74897    1.07089    1.03747   1.00
N1       0.74708    1.08641    0.97742   1.00
C6       0.72988    1.09303    0.94272   1.00
C6       0.78540    1.09402    0.97327   1.00
C6       0.75757    1.10465    0.91595   1.00
C6       0.79289    1.10526    0.93538   1.00
H3       0.69901    1.08940    0.93702   1.00
H3       0.80691    1.09112    0.99624   1.00
H3       0.75259    1.11190    0.88565   1.00
H3       0.82097    1.11300    0.92327   1.00
C4       1.22915    0.99993    0.99993   1.00
C4       1.27085    1.00007    1.00007   1.00
C3       1.20708    1.00059    0.96515   1.00
C3       1.29225    0.96552    1.00679   1.00
C3       1.20816    0.99908    1.03540   1.00
C3a      1.29263    1.03489    0.99292   1.00
C2       1.14483    1.00029    1.00148   1.00
C2       1.35517    0.99941    0.99865   1.00
C3       1.16566    1.00078    0.96598   1.00
C3       1.33359    0.96526    1.00606   1.00
C3       1.16680    0.99943    1.03614   1.00
C3       1.33415    1.03398    0.99220   1.00
H1       1.22192    1.00098    0.93727   1.00
H1       1.27685    0.93848    1.01235   1.00
H1       1.14968    1.00137    0.93875   1.00
H1       1.34895    0.93814    1.01125   1.00
H1       1.15179    0.99931    1.06394   1.00
H1       1.35043    1.06053    0.98689   1.00
C5       1.27239    1.07368    0.98676   1.00
H1       1.22401    0.99919    1.06273   1.00
H2       1.29354    1.09656    0.97776   1.00
H2       1.25103    1.07089    0.96253   1.00
N1       1.25292    1.08641    1.02258   1.00
C6       1.27012    1.09303    1.05728   1.00
C6       1.21460    1.09402    1.02673   1.00
C6       1.24243    1.10465    1.08405   1.00
C6       1.20711    1.10526    1.06462   1.00
H3       1.30099    1.08940    1.06298   1.00
H3       1.19309    1.09112    1.00376   1.00
H3       1.24741    1.11190    1.11435   1.00
H3       1.17903    1.11300    1.07673   1.00
C4       1.00007    0.77085    0.99993   1.00
C4       0.99993    0.72915    1.00007   1.00
C3       1.03485    0.79292    1.00059   1.00
C3       0.99321    0.70775    0.96552   1.00
C3       0.96460    0.79184    0.99908   1.00
C3a      1.00708    0.70737    1.03489   1.00
C2       0.99852    0.85517    1.00029   1.00
C2       1.00135    0.64483    0.99941   1.00
C3       1.03402    0.83434    1.00078   1.00
C3       0.99394    0.66641    0.96526   1.00
C3       0.96386    0.83320    0.99943   1.00
C3       1.00780    0.66585    1.03398   1.00
H1       1.06273    0.77808    1.00098   1.00
H1       0.98765    0.72315    0.93848   1.00
H1       1.06125    0.85032    1.00137   1.00
H1       0.98875    0.65105    0.93814   1.00
H1       0.93606    0.84821    0.99931   1.00
H1       1.01311    0.64957    1.06053   1.00
C5       1.01324    0.72761    1.07368   1.00
H1       0.93727    0.77599    0.99919   1.00
H2       1.02224    0.70646    1.09656   1.00
H2       1.03747    0.74897    1.07089   1.00
N1       0.97742    0.74708    1.08641   1.00
C6       0.94272    0.72988    1.09303   1.00
C6       0.97327    0.78540    1.09402   1.00
C6       0.91595    0.75757    1.10465   1.00
C6       0.93538    0.79289    1.10526   1.00
H3       0.93702    0.69901    1.08940   1.00
H3       0.99624    0.80691    1.09112   1.00
H3       0.88565    0.75259    1.11190   1.00
H3       0.92327    0.82097    1.11300   1.00
C4       0.99993    1.00007    0.77085   1.00
C4       1.00007    0.99993    0.72915   1.00
C3       1.00059    1.03485    0.79292   1.00
C3       0.96552    0.99321    0.70775   1.00
C3       0.99908    0.96460    0.79184   1.00
C3a      1.03489    1.00708    0.70737   1.00
C2       1.00029    0.99852    0.85517   1.00
C2       0.99941    1.00135    0.64483   1.00
C3       1.00078    1.03402    0.83434   1.00
C3       0.96526    0.99394    0.66641   1.00
C3       0.99943    0.96386    0.83320   1.00
C3       1.03398    1.00780    0.66585   1.00
H1       1.00098    1.06273    0.77808   1.00
H1       0.93848    0.98765    0.72315   1.00
H1       1.00137    1.06125    0.85032   1.00
H1       0.93814    0.98875    0.65105   1.00
H1       0.99931    0.93606    0.84821   1.00
H1       1.06053    1.01311    0.64957   1.00
C5       1.07368    1.01324    0.72761   1.00
H1       0.99919    0.93727    0.77599   1.00
H2       1.09656    1.02224    0.70646   1.00
H2       1.07089    1.03747    0.74897   1.00
N1       1.08641    0.97742    0.74708   1.00
C6       1.09303    0.94272    0.72988   1.00
C6       1.09402    0.97327    0.78540   1.00
C6       1.10465    0.91595    0.75757   1.00
C6       1.10526    0.93538    0.79289   1.00
H3       1.08940    0.93702    0.69901   1.00
H3       1.09112    0.99624    0.80691   1.00
H3       1.11190    0.88565    0.75259   1.00
H3       1.11300    0.92327    0.82097   1.00
C4       0.49993    0.49993    1.22915   1.00
C4       0.50007    0.50007    1.27085   1.00
C3       0.50059    0.46515    1.20708   1.00
C3       0.46552    0.50679    1.29225   1.00
C3       0.49908    0.53540    1.20816   1.00
C3a      0.53489    0.49292    1.29263   1.00
C2       0.50029    0.50148    1.14483   1.00
C2       0.49941    0.49865    1.35517   1.00
C3       0.50078    0.46598    1.16566   1.00
C3       0.46526    0.50606    1.33359   1.00
C3       0.49943    0.53614    1.16680   1.00
C3       0.53398    0.49220    1.33415   1.00
H1       0.50098    0.43727    1.22192   1.00
H1       0.43848    0.51235    1.27685   1.00
H1       0.50137    0.43875    1.14968   1.00
H1       0.43814    0.51125    1.34895   1.00
H1       0.49931    0.56394    1.15179   1.00
H1       0.56053    0.48689    1.35043   1.00
C5       0.57368    0.48676    1.27239   1.00
H1       0.49919    0.56273    1.22401   1.00
H2       0.59656    0.47776    1.29354   1.00
H2       0.57089    0.46253    1.25103   1.00
N1       0.58641    0.52258    1.25292   1.00
C6       0.59303    0.55728    1.27012   1.00
C6       0.59402    0.52673    1.21460   1.00
C6       0.60465    0.58405    1.24243   1.00
C6       0.60526    0.56462    1.20711   1.00
H3       0.58940    0.56298    1.30099   1.00
H3       0.59112    0.50376    1.19309   1.00
H3       0.61190    0.61435    1.24741   1.00
H3       0.61300    0.57673    1.17903   1.00
C4       0.49993    0.72915    0.99993   1.00
C4       0.50007    0.77085    1.00007   1.00
C3       0.46515    0.70708    1.00059   1.00
C3       0.50679    0.79225    0.96552   1.00
C3       0.53540    0.70816    0.99908   1.00
C3a      0.49292    0.79263    1.03489   1.00
C2       0.50148    0.64483    1.00029   1.00
C2       0.49865    0.85517    0.99941   1.00
C3       0.46598    0.66566    1.00078   1.00
C3       0.50606    0.83359    0.96526   1.00
C3       0.53614    0.66680    0.99943   1.00
C3       0.49220    0.83415    1.03398   1.00
H1       0.43727    0.72192    1.00098   1.00
H1       0.51235    0.77685    0.93848   1.00
H1       0.43875    0.64968    1.00137   1.00
H1       0.51125    0.84895    0.93814   1.00
H1       0.56394    0.65179    0.99931   1.00
H1       0.48689    0.85043    1.06053   1.00
C5       0.48676    0.77239    1.07368   1.00
H1       0.56273    0.72401    0.99919   1.00
H2       0.47776    0.79354    1.09656   1.00
H2       0.46253    0.75103    1.07089   1.00
N1       0.52258    0.75292    1.08641   1.00
C6       0.55728    0.77012    1.09303   1.00
C6       0.52673    0.71460    1.09402   1.00
C6       0.58405    0.74243    1.10465   1.00
C6       0.56462    0.70711    1.10526   1.00
H3       0.56298    0.80099    1.08940   1.00
H3       0.50376    0.69309    1.09112   1.00
H3       0.61435    0.74741    1.11190   1.00
H3       0.57673    0.67903    1.11300   1.00
C4       0.27085    0.49993    1.00007   1.00
C4       0.22915    0.50007    0.99993   1.00
C3       0.29292    0.50059    1.03485   1.00
C3       0.20775    0.46552    0.99321   1.00
C3       0.29184    0.49908    0.96460   1.00
C3a      0.20737    0.53489    1.00708   1.00
C2       0.35517    0.50029    0.99852   1.00
C2       0.14483    0.49941    1.00135   1.00
C3       0.33434    0.50078    1.03402   1.00
C3       0.16641    0.46526    0.99394   1.00
C3       0.33320    0.49943    0.96386   1.00
C3       0.16585    0.53398    1.00780   1.00
H1       0.27808    0.50098    1.06273   1.00
H1       0.22315    0.43848    0.98765   1.00
H1       0.35032    0.50137    1.06125   1.00
H1       0.15105    0.43814    0.98875   1.00
H1       0.34821    0.49931    0.93606   1.00
H1       0.14957    0.56053    1.01311   1.00
C5       0.22761    0.57368    1.01324   1.00
H1       0.27599    0.49919    0.93727   1.00
H2       0.20646    0.59656    1.02224   1.00
H2       0.24897    0.57089    1.03747   1.00
N1       0.24708    0.58641    0.97742   1.00
C6       0.22988    0.59303    0.94272   1.00
C6       0.28540    0.59402    0.97327   1.00
C6       0.25757    0.60465    0.91595   1.00
C6       0.29289    0.60526    0.93538   1.00
H3       0.19901    0.58940    0.93702   1.00
H3       0.30691    0.59112    0.99624   1.00
H3       0.25259    0.61190    0.88565   1.00
H3       0.32097    0.61300    0.92327   1.00
C4       0.72915    0.49993    0.99993   1.00
C4       0.77085    0.50007    1.00007   1.00
C3       0.70708    0.50059    0.96515   1.00
C3       0.79225    0.46552    1.00679   1.00
C3       0.70816    0.49908    1.03540   1.00
C3a      0.79263    0.53489    0.99292   1.00
C2       0.64483    0.50029    1.00148   1.00
C2       0.85517    0.49941    0.99865   1.00
C3       0.66566    0.50078    0.96598   1.00
C3       0.83359    0.46526    1.00606   1.00
C3       0.66680    0.49943    1.03614   1.00
C3       0.83415    0.53398    0.99220   1.00
H1       0.72192    0.50098    0.93727   1.00
H1       0.77685    0.43848    1.01235   1.00
H1       0.64968    0.50137    0.93875   1.00
H1       0.84895    0.43814    1.01125   1.00
H1       0.65179    0.49931    1.06394   1.00
H1       0.85043    0.56053    0.98689   1.00
C5       0.77239    0.57368    0.98676   1.00
H1       0.72401    0.49919    1.06273   1.00
H2       0.79354    0.59656    0.97776   1.00
H2       0.75103    0.57089    0.96253   1.00
N1       0.75292    0.58641    1.02258   1.00
C6       0.77012    0.59303    1.05728   1.00
C6       0.71460    0.59402    1.02673   1.00
C6       0.74243    0.60465    1.08405   1.00
C6       0.70711    0.60526    1.06462   1.00
H3       0.80099    0.58940    1.06298   1.00
H3       0.69309    0.59112    1.00376   1.00
H3       0.74741    0.61190    1.11435   1.00
H3       0.67903    0.61300    1.07673   1.00
C4       0.50007    0.27085    0.99993   1.00
C4       0.49993    0.22915    1.00007   1.00
C3       0.53485    0.29292    1.00059   1.00
C3       0.49321    0.20775    0.96552   1.00
C3       0.46460    0.29184    0.99908   1.00
C3a      0.50708    0.20737    1.03489   1.00
C2       0.49852    0.35517    1.00029   1.00
C2       0.50135    0.14483    0.99941   1.00
C3       0.53402    0.33434    1.00078   1.00
C3       0.49394    0.16641    0.96526   1.00
C3       0.46386    0.33320    0.99943   1.00
C3       0.50780    0.16585    1.03398   1.00
H1       0.56273    0.27808    1.00098   1.00
H1       0.48765    0.22315    0.93848   1.00
H1       0.56125    0.35032    1.00137   1.00
H1       0.48875    0.15105    0.93814   1.00
H1       0.43606    0.34821    0.99931   1.00
H1       0.51311    0.14957    1.06053   1.00
C5       0.51324    0.22761    1.07368   1.00
H1       0.43727    0.27599    0.99919   1.00
H2       0.52224    0.20646    1.09656   1.00
H2       0.53747    0.24897    1.07089   1.00
N1       0.47742    0.24708    1.08641   1.00
C6       0.44272    0.22988    1.09303   1.00
C6       0.47327    0.28540    1.09402   1.00
C6       0.41595    0.25757    1.10465   1.00
C6       0.43538    0.29289    1.10526   1.00
H3       0.43702    0.19901    1.08940   1.00
H3       0.49624    0.30691    1.09112   1.00
H3       0.38565    0.25259    1.11190   1.00
H3       0.42327    0.32097    1.11300   1.00
C4       0.49993    0.50007    0.77085   1.00
C4       0.50007    0.49993    0.72915   1.00
C3       0.50059    0.53485    0.79292   1.00
C3       0.46552    0.49321    0.70775   1.00
C3       0.49908    0.46460    0.79184   1.00
C3a      0.53489    0.50708    0.70737   1.00
C2       0.50029    0.49852    0.85517   1.00
C2       0.49941    0.50135    0.64483   1.00
C3       0.50078    0.53402    0.83434   1.00
C3       0.46526    0.49394    0.66641   1.00
C3       0.49943    0.46386    0.83320   1.00
C3       0.53398    0.50780    0.66585   1.00
H1       0.50098    0.56273    0.77808   1.00
H1       0.43848    0.48765    0.72315   1.00
H1       0.50137    0.56125    0.85032   1.00
H1       0.43814    0.48875    0.65105   1.00
H1       0.49931    0.43606    0.84821   1.00
H1       0.56053    0.51311    0.64957   1.00
C5       0.57368    0.51324    0.72761   1.00
H1       0.49919    0.43727    0.77599   1.00
H2       0.59656    0.52224    0.70646   1.00
H2       0.57089    0.53747    0.74897   1.00
N1       0.58641    0.47742    0.74708   1.00
C6       0.59303    0.44272    0.72988   1.00
C6       0.59402    0.47327    0.78540   1.00
C6       0.60465    0.41595    0.75757   1.00
C6       0.60526    0.43538    0.79289   1.00
H3       0.58940    0.43702    0.69901   1.00
H3       0.59112    0.49624    0.80691   1.00
H3       0.61190    0.38565    0.75259   1.00
H3       0.61300    0.42327    0.82097   1.00
C4       0.49993    0.99993    0.72915   1.00
C4       0.50007    1.00007    0.77085   1.00
C3       0.50059    0.96515    0.70708   1.00
C3       0.46552    1.00679    0.79225   1.00
C3       0.49908    1.03540    0.70816   1.00
C3a      0.53489    0.99292    0.79263   1.00
C2       0.50029    1.00148    0.64483   1.00
C2       0.49941    0.99865    0.85517   1.00
C3       0.50078    0.96598    0.66566   1.00
C3       0.46526    1.00606    0.83359   1.00
C3       0.49943    1.03614    0.66680   1.00
C3       0.53398    0.99220    0.83415   1.00
H1       0.50098    0.93727    0.72192   1.00
H1       0.43848    1.01235    0.77685   1.00
H1       0.50137    0.93875    0.64968   1.00
H1       0.43814    1.01125    0.84895   1.00
H1       0.49931    1.06394    0.65179   1.00
H1       0.56053    0.98689    0.85043   1.00
C5       0.57368    0.98676    0.77239   1.00
H1       0.49919    1.06273    0.72401   1.00
H2       0.59656    0.97776    0.79354   1.00
H2       0.57089    0.96253    0.75103   1.00
N1       0.58641    1.02258    0.75292   1.00
C6       0.59303    1.05728    0.77012   1.00
C6       0.59402    1.02673    0.71460   1.00
C6       0.60465    1.08405    0.74243   1.00
C6       0.60526    1.06462    0.70711   1.00
H3       0.58940    1.06298    0.80099   1.00
H3       0.59112    1.00376    0.69309   1.00
H3       0.61190    1.11435    0.74741   1.00
H3       0.61300    1.07673    0.67903   1.00
C4       0.49993    1.22915    0.49993   1.00
C4       0.50007    1.27085    0.50007   1.00
C3       0.46515    1.20708    0.50059   1.00
C3       0.50679    1.29225    0.46552   1.00
C3       0.53540    1.20816    0.49908   1.00
C3a      0.49292    1.29263    0.53489   1.00
C2       0.50148    1.14483    0.50029   1.00
C2       0.49865    1.35517    0.49941   1.00
C3       0.46598    1.16566    0.50078   1.00
C3       0.50606    1.33359    0.46526   1.00
C3       0.53614    1.16680    0.49943   1.00
C3       0.49220    1.33415    0.53398   1.00
H1       0.43727    1.22192    0.50098   1.00
H1       0.51235    1.27685    0.43848   1.00
H1       0.43875    1.14968    0.50137   1.00
H1       0.51125    1.34895    0.43814   1.00
H1       0.56394    1.15179    0.49931   1.00
H1       0.48689    1.35043    0.56053   1.00
C5       0.48676    1.27239    0.57368   1.00
H1       0.56273    1.22401    0.49919   1.00
H2       0.47776    1.29354    0.59656   1.00
H2       0.46253    1.25103    0.57089   1.00
N1       0.52258    1.25292    0.58641   1.00
C6       0.55728    1.27012    0.59303   1.00
C6       0.52673    1.21460    0.59402   1.00
C6       0.58405    1.24243    0.60465   1.00
C6       0.56462    1.20711    0.60526   1.00
H3       0.56298    1.30099    0.58940   1.00
H3       0.50376    1.19309    0.59112   1.00
H3       0.61435    1.24741    0.61190   1.00
H3       0.57673    1.17903    0.61300   1.00
C4       0.27085    0.99993    0.50007   1.00
C4       0.22915    1.00007    0.49993   1.00
C3       0.29292    1.00059    0.53485   1.00
C3       0.20775    0.96552    0.49321   1.00
C3       0.29184    0.99908    0.46460   1.00
C3a      0.20737    1.03489    0.50708   1.00
C2       0.35517    1.00029    0.49852   1.00
C2       0.14483    0.99941    0.50135   1.00
C3       0.33434    1.00078    0.53402   1.00
C3       0.16641    0.96526    0.49394   1.00
C3       0.33320    0.99943    0.46386   1.00
C3       0.16585    1.03398    0.50780   1.00
H1       0.27808    1.00098    0.56273   1.00
H1       0.22315    0.93848    0.48765   1.00
H1       0.35032    1.00137    0.56125   1.00
H1       0.15105    0.93814    0.48875   1.00
H1       0.34821    0.99931    0.43606   1.00
H1       0.14957    1.06053    0.51311   1.00
C5       0.22761    1.07368    0.51324   1.00
H1       0.27599    0.99919    0.43727   1.00
H2       0.20646    1.09656    0.52224   1.00
H2       0.24897    1.07089    0.53747   1.00
N1       0.24708    1.08641    0.47742   1.00
C6       0.22988    1.09303    0.44272   1.00
C6       0.28540    1.09402    0.47327   1.00
C6       0.25757    1.10465    0.41595   1.00
C6       0.29289    1.10526    0.43538   1.00
H3       0.19901    1.08940    0.43702   1.00
H3       0.30691    1.09112    0.49624   1.00
H3       0.25259    1.11190    0.38565   1.00
H3       0.32097    1.11300    0.42327   1.00
C4       0.72915    0.99993    0.49993   1.00
C4       0.77085    1.00007    0.50007   1.00
C3       0.70708    1.00059    0.46515   1.00
C3       0.79225    0.96552    0.50679   1.00
C3       0.70816    0.99908    0.53540   1.00
C3a      0.79263    1.03489    0.49292   1.00
C2       0.64483    1.00029    0.50148   1.00
C2       0.85517    0.99941    0.49865   1.00
C3       0.66566    1.00078    0.46598   1.00
C3       0.83359    0.96526    0.50606   1.00
C3       0.66680    0.99943    0.53614   1.00
C3       0.83415    1.03398    0.49220   1.00
H1       0.72192    1.00098    0.43727   1.00
H1       0.77685    0.93848    0.51235   1.00
H1       0.64968    1.00137    0.43875   1.00
H1       0.84895    0.93814    0.51125   1.00
H1       0.65179    0.99931    0.56394   1.00
H1       0.85043    1.06053    0.48689   1.00
C5       0.77239    1.07368    0.48676   1.00
H1       0.72401    0.99919    0.56273   1.00
H2       0.79354    1.09656    0.47776   1.00
H2       0.75103    1.07089    0.46253   1.00
N1       0.75292    1.08641    0.52258   1.00
C6       0.77012    1.09303    0.55728   1.00
C6       0.71460    1.09402    0.52673   1.00
C6       0.74243    1.10465    0.58405   1.00
C6       0.70711    1.10526    0.56462   1.00
H3       0.80099    1.08940    0.56298   1.00
H3       0.69309    1.09112    0.50376   1.00
H3       0.74741    1.11190    0.61435   1.00
H3       0.67903    1.11300    0.57673   1.00
C4       0.50007    0.77085    0.49993   1.00
C4       0.49993    0.72915    0.50007   1.00
C3       0.53485    0.79292    0.50059   1.00
C3       0.49321    0.70775    0.46552   1.00
C3       0.46460    0.79184    0.49908   1.00
C3a      0.50708    0.70737    0.53489   1.00
C2       0.49852    0.85517    0.50029   1.00
C2       0.50135    0.64483    0.49941   1.00
C3       0.53402    0.83434    0.50078   1.00
C3       0.49394    0.66641    0.46526   1.00
C3       0.46386    0.83320    0.49943   1.00
C3       0.50780    0.66585    0.53398   1.00
H1       0.56273    0.77808    0.50098   1.00
H1       0.48765    0.72315    0.43848   1.00
H1       0.56125    0.85032    0.50137   1.00
H1       0.48875    0.65105    0.43814   1.00
H1       0.43606    0.84821    0.49931   1.00
H1       0.51311    0.64957    0.56053   1.00
C5       0.51324    0.72761    0.57368   1.00
H1       0.43727    0.77599    0.49919   1.00
H2       0.52224    0.70646    0.59656   1.00
H2       0.53747    0.74897    0.57089   1.00
N1       0.47742    0.74708    0.58641   1.00
C6       0.44272    0.72988    0.59303   1.00
C6       0.47327    0.78540    0.59402   1.00
C6       0.41595    0.75757    0.60465   1.00
C6       0.43538    0.79289    0.60526   1.00
H3       0.43702    0.69901    0.58940   1.00
H3       0.49624    0.80691    0.59112   1.00
H3       0.38565    0.75259    0.61190   1.00
H3       0.42327    0.82097    0.61300   1.00
C4       0.49993    1.00007    0.27085   1.00
C4       0.50007    0.99993    0.22915   1.00
C3       0.50059    1.03485    0.29292   1.00
C3       0.46552    0.99321    0.20775   1.00
C3       0.49908    0.96460    0.29184   1.00
C3a      0.53489    1.00708    0.20737   1.00
C2       0.50029    0.99852    0.35517   1.00
C2       0.49941    1.00135    0.14483   1.00
C3       0.50078    1.03402    0.33434   1.00
C3       0.46526    0.99394    0.16641   1.00
C3       0.49943    0.96386    0.33320   1.00
C3       0.53398    1.00780    0.16585   1.00
H1       0.50098    1.06273    0.27808   1.00
H1       0.43848    0.98765    0.22315   1.00
H1       0.50137    1.06125    0.35032   1.00
H1       0.43814    0.98875    0.15105   1.00
H1       0.49931    0.93606    0.34821   1.00
H1       0.56053    1.01311    0.14957   1.00
C5       0.57368    1.01324    0.22761   1.00
H1       0.49919    0.93727    0.27599   1.00
H2       0.59656    1.02224    0.20646   1.00
H2       0.57089    1.03747    0.24897   1.00
N1       0.58641    0.97742    0.24708   1.00
C6       0.59303    0.94272    0.22988   1.00
C6       0.59402    0.97327    0.28540   1.00
C6       0.60465    0.91595    0.25757   1.00
C6       0.60526    0.93538    0.29289   1.00
H3       0.58940    0.93702    0.19901   1.00
H3       0.59112    0.99624    0.30691   1.00
H3       0.61190    0.88565    0.25259   1.00
H3       0.61300    0.92327    0.32097   1.00
C4       0.99993    0.49993    0.72915   1.00
C4       1.00007    0.50007    0.77085   1.00
C3       1.00059    0.46515    0.70708   1.00
C3       0.96552    0.50679    0.79225   1.00
C3       0.99908    0.53540    0.70816   1.00
C3a      1.03489    0.49292    0.79263   1.00
C2       1.00029    0.50148    0.64483   1.00
C2       0.99941    0.49865    0.85517   1.00
C3       1.00078    0.46598    0.66566   1.00
C3       0.96526    0.50606    0.83359   1.00
C3       0.99943    0.53614    0.66680   1.00
C3       1.03398    0.49220    0.83415   1.00
H1       1.00098    0.43727    0.72192   1.00
H1       0.93848    0.51235    0.77685   1.00
H1       1.00137    0.43875    0.64968   1.00
H1       0.93814    0.51125    0.84895   1.00
H1       0.99931    0.56394    0.65179   1.00
H1       1.06053    0.48689    0.85043   1.00
C5       1.07368    0.48676    0.77239   1.00
H1       0.99919    0.56273    0.72401   1.00
H2       1.09656    0.47776    0.79354   1.00
H2       1.07089    0.46253    0.75103   1.00
N1       1.08641    0.52258    0.75292   1.00
C6       1.09303    0.55728    0.77012   1.00
C6       1.09402    0.52673    0.71460   1.00
C6       1.10465    0.58405    0.74243   1.00
C6       1.10526    0.56462    0.70711   1.00
H3       1.08940    0.56298    0.80099   1.00
H3       1.09112    0.50376    0.69309   1.00
H3       1.11190    0.61435    0.74741   1.00
H3       1.11300    0.57673    0.67903   1.00
C4       0.99993    0.72915    0.49993   1.00
C4       1.00007    0.77085    0.50007   1.00
C3       0.96515    0.70708    0.50059   1.00
C3       1.00679    0.79225    0.46552   1.00
C3       1.03540    0.70816    0.49908   1.00
C3a      0.99292    0.79263    0.53489   1.00
C2       1.00148    0.64483    0.50029   1.00
C2       0.99865    0.85517    0.49941   1.00
C3       0.96598    0.66566    0.50078   1.00
C3       1.00606    0.83359    0.46526   1.00
C3       1.03614    0.66680    0.49943   1.00
C3       0.99220    0.83415    0.53398   1.00
H1       0.93727    0.72192    0.50098   1.00
H1       1.01235    0.77685    0.43848   1.00
H1       0.93875    0.64968    0.50137   1.00
H1       1.01125    0.84895    0.43814   1.00
H1       1.06394    0.65179    0.49931   1.00
H1       0.98689    0.85043    0.56053   1.00
C5       0.98676    0.77239    0.57368   1.00
H1       1.06273    0.72401    0.49919   1.00
H2       0.97776    0.79354    0.59656   1.00
H2       0.96253    0.75103    0.57089   1.00
N1       1.02258    0.75292    0.58641   1.00
C6       1.05728    0.77012    0.59303   1.00
C6       1.02673    0.71460    0.59402   1.00
C6       1.08405    0.74243    0.60465   1.00
C6       1.06462    0.70711    0.60526   1.00
H3       1.06298    0.80099    0.58940   1.00
H3       1.00376    0.69309    0.59112   1.00
H3       1.11435    0.74741    0.61190   1.00
H3       1.07673    0.67903    0.61300   1.00
C4       0.77085    0.49993    0.50007   1.00
C4       0.72915    0.50007    0.49993   1.00
C3       0.79292    0.50059    0.53485   1.00
C3       0.70775    0.46552    0.49321   1.00
C3       0.79184    0.49908    0.46460   1.00
C3a      0.70737    0.53489    0.50708   1.00
C2       0.85517    0.50029    0.49852   1.00
C2       0.64483    0.49941    0.50135   1.00
C3       0.83434    0.50078    0.53402   1.00
C3       0.66641    0.46526    0.49394   1.00
C3       0.83320    0.49943    0.46386   1.00
C3       0.66585    0.53398    0.50780   1.00
H1       0.77808    0.50098    0.56273   1.00
H1       0.72315    0.43848    0.48765   1.00
H1       0.85032    0.50137    0.56125   1.00
H1       0.65105    0.43814    0.48875   1.00
H1       0.84821    0.49931    0.43606   1.00
H1       0.64957    0.56053    0.51311   1.00
C5       0.72761    0.57368    0.51324   1.00
H1       0.77599    0.49919    0.43727   1.00
H2       0.70646    0.59656    0.52224   1.00
H2       0.74897    0.57089    0.53747   1.00
N1       0.74708    0.58641    0.47742   1.00
C6       0.72988    0.59303    0.44272   1.00
C6       0.78540    0.59402    0.47327   1.00
C6       0.75757    0.60465    0.41595   1.00
C6       0.79289    0.60526    0.43538   1.00
H3       0.69901    0.58940    0.43702   1.00
H3       0.80691    0.59112    0.49624   1.00
H3       0.75259    0.61190    0.38565   1.00
H3       0.82097    0.61300    0.42327   1.00
C4       1.22915    0.49993    0.49993   1.00
C4       1.27085    0.50007    0.50007   1.00
C3       1.20708    0.50059    0.46515   1.00
C3       1.29225    0.46552    0.50679   1.00
C3       1.20816    0.49908    0.53540   1.00
C3a      1.29263    0.53489    0.49292   1.00
C2       1.14483    0.50029    0.50148   1.00
C2       1.35517    0.49941    0.49865   1.00
C3       1.16566    0.50078    0.46598   1.00
C3       1.33359    0.46526    0.50606   1.00
C3       1.16680    0.49943    0.53614   1.00
C3       1.33415    0.53398    0.49220   1.00
H1       1.22192    0.50098    0.43727   1.00
H1       1.27685    0.43848    0.51235   1.00
H1       1.14968    0.50137    0.43875   1.00
H1       1.34895    0.43814    0.51125   1.00
H1       1.15179    0.49931    0.56394   1.00
H1       1.35043    0.56053    0.48689   1.00
C5       1.27239    0.57368    0.48676   1.00
H1       1.22401    0.49919    0.56273   1.00
H2       1.29354    0.59656    0.47776   1.00
H2       1.25103    0.57089    0.46253   1.00
N1       1.25292    0.58641    0.52258   1.00
C6       1.27012    0.59303    0.55728   1.00
C6       1.21460    0.59402    0.52673   1.00
C6       1.24243    0.60465    0.58405   1.00
C6       1.20711    0.60526    0.56462   1.00
H3       1.30099    0.58940    0.56298   1.00
H3       1.19309    0.59112    0.50376   1.00
H3       1.24741    0.61190    0.61435   1.00
H3       1.17903    0.61300    0.57673   1.00
C4       1.00007    0.27085    0.49993   1.00
C4       0.99993    0.22915    0.50007   1.00
C3       1.03485    0.29292    0.50059   1.00
C3       0.99321    0.20775    0.46552   1.00
C3       0.96460    0.29184    0.49908   1.00
C3a      1.00708    0.20737    0.53489   1.00
C2       0.99852    0.35517    0.50029   1.00
C2       1.00135    0.14483    0.49941   1.00
C3       1.03402    0.33434    0.50078   1.00
C3       0.99394    0.16641    0.46526   1.00
C3       0.96386    0.33320    0.49943   1.00
C3       1.00780    0.16585    0.53398   1.00
H1       1.06273    0.27808    0.50098   1.00
H1       0.98765    0.22315    0.43848   1.00
H1       1.06125    0.35032    0.50137   1.00
H1       0.98875    0.15105    0.43814   1.00
H1       0.93606    0.34821    0.49931   1.00
H1       1.01311    0.14957    0.56053   1.00
C5       1.01324    0.22761    0.57368   1.00
H1       0.93727    0.27599    0.49919   1.00
H2       1.02224    0.20646    0.59656   1.00
H2       1.03747    0.24897    0.57089   1.00
N1       0.97742    0.24708    0.58641   1.00
C6       0.94272    0.22988    0.59303   1.00
C6       0.97327    0.28540    0.59402   1.00
C6       0.91595    0.25757    0.60465   1.00
C6       0.93538    0.29289    0.60526   1.00
H3       0.93702    0.19901    0.58940   1.00
H3       0.99624    0.30691    0.59112   1.00
H3       0.88565    0.25259    0.61190   1.00
H3       0.92327    0.32097    0.61300   1.00
C4       0.99993    0.50007    0.27085   1.00
C4       1.00007    0.49993    0.22915   1.00
C3       1.00059    0.53485    0.29292   1.00
C3       0.96552    0.49321    0.20775   1.00
C3       0.99908    0.46460    0.29184   1.00
C3a      1.03489    0.50708    0.20737   1.00
C2       1.00029    0.49852    0.35517   1.00
C2       0.99941    0.50135    0.14483   1.00
C3       1.00078    0.53402    0.33434   1.00
C3       0.96526    0.49394    0.16641   1.00
C3       0.99943    0.46386    0.33320   1.00
C3       1.03398    0.50780    0.16585   1.00
H1       1.00098    0.56273    0.27808   1.00
H1       0.93848    0.48765    0.22315   1.00
H1       1.00137    0.56125    0.35032   1.00
H1       0.93814    0.48875    0.15105   1.00
H1       0.99931    0.43606    0.34821   1.00
H1       1.06053    0.51311    0.14957   1.00
C5       1.07368    0.51324    0.22761   1.00
H1       0.99919    0.43727    0.27599   1.00
H2       1.09656    0.52224    0.20646   1.00
H2       1.07089    0.53747    0.24897   1.00
N1       1.08641    0.47742    0.24708   1.00
C6       1.09303    0.44272    0.22988   1.00
C6       1.09402    0.47327    0.28540   1.00
C6       1.10465    0.41595    0.25757   1.00
C6       1.10526    0.43538    0.29289   1.00
H3       1.08940    0.43702    0.19901   1.00
H3       1.09112    0.49624    0.30691   1.00
H3       1.11190    0.38565    0.25259   1.00
H3       1.11300    0.42327    0.32097   1.00
