data_IRMOF10_SG202_interpen_Ligand11lp_label_o.

_audit_creation_method             'generated by an auxiliary program of Tobunporous'

_symmetry_space_group_name_H-M     'P 1'
_symmetry_Int_Tables_number        1
_symmetry_cell_setting             triclinic

_cell_length_a                    34.2800
_cell_length_b                    34.2800
_cell_length_c                    34.2800
_cell_angle_alpha                 90.0000
_cell_angle_beta                  90.0000
_cell_angle_gamma                 90.0000

loop_
_atom_site_label
_atom_site_fract_x
_atom_site_fract_y
_atom_site_fract_z
_atom_site_occupancy
O1       0.75000    0.75000    0.75000   1.00
Zn1      0.71720    0.78280    0.78280   1.00
Zn1      0.78280    0.71720    0.78280   1.00
Zn1      0.78280    0.78280    0.71720   1.00
Zn1      0.71720    0.71720    0.71720   1.00
O2       0.72650    0.77350    0.83820   1.00
O2       0.72650    0.83820    0.77350   1.00
O2       0.66180    0.77350    0.77350   1.00
O2       0.77350    0.72650    0.83820   1.00
O2       0.83820    0.72650    0.77350   1.00
O2       0.77350    0.66180    0.77350   1.00
O2       0.77350    0.83820    0.72650   1.00
O2       0.83820    0.77350    0.72650   1.00
O2       0.77350    0.77350    0.66180   1.00
O2       0.66180    0.72650    0.72650   1.00
O2       0.72650    0.66180    0.72650   1.00
O2       0.72650    0.72650    0.66180   1.00
C1       0.75000    0.75000    0.85520   1.00
C1       0.75000    0.85520    0.75000   1.00
C1       0.64480    0.75000    0.75000   1.00
C1       0.85520    0.75000    0.75000   1.00
C1       0.75000    0.64480    0.75000   1.00
C1       0.75000    0.75000    0.64480   1.00
O1       0.25000    0.25000    0.75000   1.00
Zn1      0.21720    0.28280    0.78280   1.00
Zn1      0.28280    0.21720    0.78280   1.00
Zn1      0.28280    0.28280    0.71720   1.00
Zn1      0.21720    0.21720    0.71720   1.00
O2       0.22650    0.27350    0.83820   1.00
O2       0.22650    0.33820    0.77350   1.00
O2       0.16180    0.27350    0.77350   1.00
O2       0.27350    0.22650    0.83820   1.00
O2       0.33820    0.22650    0.77350   1.00
O2       0.27350    0.16180    0.77350   1.00
O2       0.27350    0.33820    0.72650   1.00
O2       0.33820    0.27350    0.72650   1.00
O2       0.27350    0.27350    0.66180   1.00
O2       0.16180    0.22650    0.72650   1.00
O2       0.22650    0.16180    0.72650   1.00
O2       0.22650    0.22650    0.66180   1.00
C1       0.25000    0.25000    0.85520   1.00
C1       0.25000    0.35520    0.75000   1.00
C1       0.14480    0.25000    0.75000   1.00
C1       0.35520    0.25000    0.75000   1.00
C1       0.25000    0.14480    0.75000   1.00
C1       0.25000    0.25000    0.64480   1.00
O1       0.25000    0.75000    0.25000   1.00
Zn1      0.21720    0.78280    0.28280   1.00
Zn1      0.28280    0.71720    0.28280   1.00
Zn1      0.28280    0.78280    0.21720   1.00
Zn1      0.21720    0.71720    0.21720   1.00
O2       0.22650    0.77350    0.33820   1.00
O2       0.22650    0.83820    0.27350   1.00
O2       0.16180    0.77350    0.27350   1.00
O2       0.27350    0.72650    0.33820   1.00
O2       0.33820    0.72650    0.27350   1.00
O2       0.27350    0.66180    0.27350   1.00
O2       0.27350    0.83820    0.22650   1.00
O2       0.33820    0.77350    0.22650   1.00
O2       0.27350    0.77350    0.16180   1.00
O2       0.16180    0.72650    0.22650   1.00
O2       0.22650    0.66180    0.22650   1.00
O2       0.22650    0.72650    0.16180   1.00
C1       0.25000    0.75000    0.35520   1.00
C1       0.25000    0.85520    0.25000   1.00
C1       0.14480    0.75000    0.25000   1.00
C1       0.35520    0.75000    0.25000   1.00
C1       0.25000    0.64480    0.25000   1.00
C1       0.25000    0.75000    0.14480   1.00
O1       0.75000    0.25000    0.25000   1.00
Zn1      0.71720    0.28280    0.28280   1.00
Zn1      0.78280    0.21720    0.28280   1.00
Zn1      0.78280    0.28280    0.21720   1.00
Zn1      0.71720    0.21720    0.21720   1.00
O2       0.72650    0.27350    0.33820   1.00
O2       0.72650    0.33820    0.27350   1.00
O2       0.66180    0.27350    0.27350   1.00
O2       0.77350    0.22650    0.33820   1.00
O2       0.83820    0.22650    0.27350   1.00
O2       0.77350    0.16180    0.27350   1.00
O2       0.77350    0.33820    0.22650   1.00
O2       0.83820    0.27350    0.22650   1.00
O2       0.77350    0.27350    0.16180   1.00
O2       0.66180    0.22650    0.22650   1.00
O2       0.72650    0.16180    0.22650   1.00
O2       0.72650    0.22650    0.16180   1.00
C1       0.75000    0.25000    0.35520   1.00
C1       0.75000    0.35520    0.25000   1.00
C1       0.64480    0.25000    0.25000   1.00
C1       0.85520    0.25000    0.25000   1.00
C1       0.75000    0.14480    0.25000   1.00
C1       0.75000    0.25000    0.14480   1.00
O1       0.25000    0.25000    0.25000   1.00
Zn1      0.28280    0.21720    0.21720   1.00
Zn1      0.21720    0.28280    0.21720   1.00
Zn1      0.21720    0.21720    0.28280   1.00
Zn1      0.28280    0.28280    0.28280   1.00
O2       0.27350    0.22650    0.16180   1.00
O2       0.27350    0.16180    0.22650   1.00
O2       0.33820    0.22650    0.22650   1.00
O2       0.22650    0.27350    0.16180   1.00
O2       0.16180    0.27350    0.22650   1.00
O2       0.22650    0.33820    0.22650   1.00
O2       0.22650    0.16180    0.27350   1.00
O2       0.16180    0.22650    0.27350   1.00
O2       0.22650    0.22650    0.33820   1.00
O2       0.33820    0.27350    0.27350   1.00
O2       0.27350    0.33820    0.27350   1.00
O2       0.27350    0.27350    0.33820   1.00
C1       0.25000    0.25000    0.14480   1.00
C1       0.25000    0.14480    0.25000   1.00
C1       0.35520    0.25000    0.25000   1.00
C1       0.14480    0.25000    0.25000   1.00
C1       0.25000    0.35520    0.25000   1.00
C1       0.25000    0.25000    0.35520   1.00
O1       0.75000    0.75000    0.25000   1.00
Zn1      0.78280    0.71720    0.21720   1.00
Zn1      0.71720    0.78280    0.21720   1.00
Zn1      0.71720    0.71720    0.28280   1.00
Zn1      0.78280    0.78280    0.28280   1.00
O2       0.77350    0.72650    0.16180   1.00
O2       0.77350    0.66180    0.22650   1.00
O2       0.83820    0.72650    0.22650   1.00
O2       0.72650    0.77350    0.16180   1.00
O2       0.66180    0.77350    0.22650   1.00
O2       0.72650    0.83820    0.22650   1.00
O2       0.72650    0.66180    0.27350   1.00
O2       0.66180    0.72650    0.27350   1.00
O2       0.72650    0.72650    0.33820   1.00
O2       0.83820    0.77350    0.27350   1.00
O2       0.77350    0.83820    0.27350   1.00
O2       0.77350    0.77350    0.33820   1.00
C1       0.75000    0.75000    0.14480   1.00
C1       0.75000    0.64480    0.25000   1.00
C1       0.85520    0.75000    0.25000   1.00
C1       0.64480    0.75000    0.25000   1.00
C1       0.75000    0.85520    0.25000   1.00
C1       0.75000    0.75000    0.35520   1.00
O1       0.75000    0.25000    0.75000   1.00
Zn1      0.78280    0.21720    0.71720   1.00
Zn1      0.71720    0.28280    0.71720   1.00
Zn1      0.71720    0.21720    0.78280   1.00
Zn1      0.78280    0.28280    0.78280   1.00
O2       0.77350    0.22650    0.66180   1.00
O2       0.77350    0.16180    0.72650   1.00
O2       0.83820    0.22650    0.72650   1.00
O2       0.72650    0.27350    0.66180   1.00
O2       0.66180    0.27350    0.72650   1.00
O2       0.72650    0.33820    0.72650   1.00
O2       0.72650    0.16180    0.77350   1.00
O2       0.66180    0.22650    0.77350   1.00
O2       0.72650    0.22650    0.83820   1.00
O2       0.83820    0.27350    0.77350   1.00
O2       0.77350    0.33820    0.77350   1.00
O2       0.77350    0.27350    0.83820   1.00
C1       0.75000    0.25000    0.64480   1.00
C1       0.75000    0.14480    0.75000   1.00
C1       0.85520    0.25000    0.75000   1.00
C1       0.64480    0.25000    0.75000   1.00
C1       0.75000    0.35520    0.75000   1.00
C1       0.75000    0.25000    0.85520   1.00
O1       0.25000    0.75000    0.75000   1.00
Zn1      0.28280    0.71720    0.71720   1.00
Zn1      0.21720    0.78280    0.71720   1.00
Zn1      0.21720    0.71720    0.78280   1.00
Zn1      0.28280    0.78280    0.78280   1.00
O2       0.27350    0.72650    0.66180   1.00
O2       0.27350    0.66180    0.72650   1.00
O2       0.33820    0.72650    0.72650   1.00
O2       0.22650    0.77350    0.66180   1.00
O2       0.16180    0.77350    0.72650   1.00
O2       0.22650    0.83820    0.72650   1.00
O2       0.22650    0.66180    0.77350   1.00
O2       0.16180    0.72650    0.77350   1.00
O2       0.22650    0.72650    0.83820   1.00
O2       0.33820    0.77350    0.77350   1.00
O2       0.27350    0.83820    0.77350   1.00
O2       0.27350    0.77350    0.83820   1.00
C1       0.25000    0.75000    0.64480   1.00
C1       0.25000    0.64480    0.75000   1.00
C1       0.35520    0.75000    0.75000   1.00
C1       0.14480    0.75000    0.75000   1.00
C1       0.25000    0.85520    0.75000   1.00
C1       0.25000    0.75000    0.85520   1.00
O1       1.00000    1.00000    1.00000   1.00
Zn1      0.96720    1.03280    1.03280   1.00
Zn1      1.03280    0.96720    1.03280   1.00
Zn1      1.03280    1.03280    0.96720   1.00
Zn1      0.96720    0.96720    0.96720   1.00
O2       0.97650    1.02350    1.08820   1.00
O2       0.97650    1.08820    1.02350   1.00
O2       0.91180    1.02350    1.02350   1.00
O2       1.02350    0.97650    1.08820   1.00
O2       1.08820    0.97650    1.02350   1.00
O2       1.02350    0.91180    1.02350   1.00
O2       1.02350    1.08820    0.97650   1.00
O2       1.08820    1.02350    0.97650   1.00
O2       1.02350    1.02350    0.91180   1.00
O2       0.91180    0.97650    0.97650   1.00
O2       0.97650    0.91180    0.97650   1.00
O2       0.97650    0.97650    0.91180   1.00
C1       1.00000    1.00000    1.10520   1.00
C1       1.00000    1.10520    1.00000   1.00
C1       0.89480    1.00000    1.00000   1.00
C1       1.10520    1.00000    1.00000   1.00
C1       1.00000    0.89480    1.00000   1.00
C1       1.00000    1.00000    0.89480   1.00
O1       0.50000    0.50000    1.00000   1.00
Zn1      0.46720    0.53280    1.03280   1.00
Zn1      0.53280    0.46720    1.03280   1.00
Zn1      0.53280    0.53280    0.96720   1.00
Zn1      0.46720    0.46720    0.96720   1.00
O2       0.47650    0.52350    1.08820   1.00
O2       0.47650    0.58820    1.02350   1.00
O2       0.41180    0.52350    1.02350   1.00
O2       0.52350    0.47650    1.08820   1.00
O2       0.58820    0.47650    1.02350   1.00
O2       0.52350    0.41180    1.02350   1.00
O2       0.52350    0.58820    0.97650   1.00
O2       0.58820    0.52350    0.97650   1.00
O2       0.52350    0.52350    0.91180   1.00
O2       0.41180    0.47650    0.97650   1.00
O2       0.47650    0.41180    0.97650   1.00
O2       0.47650    0.47650    0.91180   1.00
C1       0.50000    0.50000    1.10520   1.00
C1       0.50000    0.60520    1.00000   1.00
C1       0.39480    0.50000    1.00000   1.00
C1       0.60520    0.50000    1.00000   1.00
C1       0.50000    0.39480    1.00000   1.00
C1       0.50000    0.50000    0.89480   1.00
O1       0.50000    1.00000    0.50000   1.00
Zn1      0.46720    1.03280    0.53280   1.00
Zn1      0.53280    0.96720    0.53280   1.00
Zn1      0.53280    1.03280    0.46720   1.00
Zn1      0.46720    0.96720    0.46720   1.00
O2       0.47650    1.02350    0.58820   1.00
O2       0.47650    1.08820    0.52350   1.00
O2       0.41180    1.02350    0.52350   1.00
O2       0.52350    0.97650    0.58820   1.00
O2       0.58820    0.97650    0.52350   1.00
O2       0.52350    0.91180    0.52350   1.00
O2       0.52350    1.08820    0.47650   1.00
O2       0.58820    1.02350    0.47650   1.00
O2       0.52350    1.02350    0.41180   1.00
O2       0.41180    0.97650    0.47650   1.00
O2       0.47650    0.91180    0.47650   1.00
O2       0.47650    0.97650    0.41180   1.00
C1       0.50000    1.00000    0.60520   1.00
C1       0.50000    1.10520    0.50000   1.00
C1       0.39480    1.00000    0.50000   1.00
C1       0.60520    1.00000    0.50000   1.00
C1       0.50000    0.89480    0.50000   1.00
C1       0.50000    1.00000    0.39480   1.00
O1       1.00000    0.50000    0.50000   1.00
Zn1      0.96720    0.53280    0.53280   1.00
Zn1      1.03280    0.46720    0.53280   1.00
Zn1      1.03280    0.53280    0.46720   1.00
Zn1      0.96720    0.46720    0.46720   1.00
O2       0.97650    0.52350    0.58820   1.00
O2       0.97650    0.58820    0.52350   1.00
O2       0.91180    0.52350    0.52350   1.00
O2       1.02350    0.47650    0.58820   1.00
O2       1.08820    0.47650    0.52350   1.00
O2       1.02350    0.41180    0.52350   1.00
O2       1.02350    0.58820    0.47650   1.00
O2       1.08820    0.52350    0.47650   1.00
O2       1.02350    0.52350    0.41180   1.00
O2       0.91180    0.47650    0.47650   1.00
O2       0.97650    0.41180    0.47650   1.00
O2       0.97650    0.47650    0.41180   1.00
C1       1.00000    0.50000    0.60520   1.00
C1       1.00000    0.60520    0.50000   1.00
C1       0.89480    0.50000    0.50000   1.00
C1       1.10520    0.50000    0.50000   1.00
C1       1.00000    0.39480    0.50000   1.00
C1       1.00000    0.50000    0.39480   1.00
O1       0.50000    0.50000    0.50000   1.00
Zn1      0.53280    0.46720    0.46720   1.00
Zn1      0.46720    0.53280    0.46720   1.00
Zn1      0.46720    0.46720    0.53280   1.00
Zn1      0.53280    0.53280    0.53280   1.00
O2       0.52350    0.47650    0.41180   1.00
O2       0.52350    0.41180    0.47650   1.00
O2       0.58820    0.47650    0.47650   1.00
O2       0.47650    0.52350    0.41180   1.00
O2       0.41180    0.52350    0.47650   1.00
O2       0.47650    0.58820    0.47650   1.00
O2       0.47650    0.41180    0.52350   1.00
O2       0.41180    0.47650    0.52350   1.00
O2       0.47650    0.47650    0.58820   1.00
O2       0.58820    0.52350    0.52350   1.00
O2       0.52350    0.58820    0.52350   1.00
O2       0.52350    0.52350    0.58820   1.00
C1       0.50000    0.50000    0.39480   1.00
C1       0.50000    0.39480    0.50000   1.00
C1       0.60520    0.50000    0.50000   1.00
C1       0.39480    0.50000    0.50000   1.00
C1       0.50000    0.60520    0.50000   1.00
C1       0.50000    0.50000    0.60520   1.00
O1       1.00000    1.00000    0.50000   1.00
Zn1      1.03280    0.96720    0.46720   1.00
Zn1      0.96720    1.03280    0.46720   1.00
Zn1      0.96720    0.96720    0.53280   1.00
Zn1      1.03280    1.03280    0.53280   1.00
O2       1.02350    0.97650    0.41180   1.00
O2       1.02350    0.91180    0.47650   1.00
O2       1.08820    0.97650    0.47650   1.00
O2       0.97650    1.02350    0.41180   1.00
O2       0.91180    1.02350    0.47650   1.00
O2       0.97650    1.08820    0.47650   1.00
O2       0.97650    0.91180    0.52350   1.00
O2       0.91180    0.97650    0.52350   1.00
O2       0.97650    0.97650    0.58820   1.00
O2       1.08820    1.02350    0.52350   1.00
O2       1.02350    1.08820    0.52350   1.00
O2       1.02350    1.02350    0.58820   1.00
C1       1.00000    1.00000    0.39480   1.00
C1       1.00000    0.89480    0.50000   1.00
C1       1.10520    1.00000    0.50000   1.00
C1       0.89480    1.00000    0.50000   1.00
C1       1.00000    1.10520    0.50000   1.00
C1       1.00000    1.00000    0.60520   1.00
O1       1.00000    0.50000    1.00000   1.00
Zn1      1.03280    0.46720    0.96720   1.00
Zn1      0.96720    0.53280    0.96720   1.00
Zn1      0.96720    0.46720    1.03280   1.00
Zn1      1.03280    0.53280    1.03280   1.00
O2       1.02350    0.47650    0.91180   1.00
O2       1.02350    0.41180    0.97650   1.00
O2       1.08820    0.47650    0.97650   1.00
O2       0.97650    0.52350    0.91180   1.00
O2       0.91180    0.52350    0.97650   1.00
O2       0.97650    0.58820    0.97650   1.00
O2       0.97650    0.41180    1.02350   1.00
O2       0.91180    0.47650    1.02350   1.00
O2       0.97650    0.47650    1.08820   1.00
O2       1.08820    0.52350    1.02350   1.00
O2       1.02350    0.58820    1.02350   1.00
O2       1.02350    0.52350    1.08820   1.00
C1       1.00000    0.50000    0.89480   1.00
C1       1.00000    0.39480    1.00000   1.00
C1       1.10520    0.50000    1.00000   1.00
C1       0.89480    0.50000    1.00000   1.00
C1       1.00000    0.60520    1.00000   1.00
C1       1.00000    0.50000    1.10520   1.00
O1       0.50000    1.00000    1.00000   1.00
Zn1      0.53280    0.96720    0.96720   1.00
Zn1      0.46720    1.03280    0.96720   1.00
Zn1      0.46720    0.96720    1.03280   1.00
Zn1      0.53280    1.03280    1.03280   1.00
O2       0.52350    0.97650    0.91180   1.00
O2       0.52350    0.91180    0.97650   1.00
O2       0.58820    0.97650    0.97650   1.00
O2       0.47650    1.02350    0.91180   1.00
O2       0.41180    1.02350    0.97650   1.00
O2       0.47650    1.08820    0.97650   1.00
O2       0.47650    0.91180    1.02350   1.00
O2       0.41180    0.97650    1.02350   1.00
O2       0.47650    0.97650    1.08820   1.00
O2       0.58820    1.02350    1.02350   1.00
O2       0.52350    1.08820    1.02350   1.00
O2       0.52350    1.02350    1.08820   1.00
C1       0.50000    1.00000    0.89480   1.00
C1       0.50000    0.89480    1.00000   1.00
C1       0.60520    1.00000    1.00000   1.00
C1       0.39480    1.00000    1.00000   1.00
C1       0.50000    1.10520    1.00000   1.00
C1       0.50000    1.00000    1.10520   1.00
C4       0.74988    0.74985    0.97915   1.00
C4       0.75012    0.75015    1.02085   1.00
C3a      0.75058    0.71427    0.95746   1.00
C3       0.71570    0.74318    1.04232   1.00
C3       0.74880    0.78495    0.95768   1.00
C3a      0.78492    0.75759    1.04254   1.00
C2       0.74993    0.75005    0.89488   1.00
C2       0.74994    0.75005    1.10512   1.00
C3       0.75068    0.71495    0.91595   1.00
C3       0.71568    0.74303    1.08363   1.00
C3       0.74895    0.78501    0.91637   1.00
C3       0.78428    0.75735    1.08405   1.00
C5       0.75187    0.67506    0.97772   1.00
H1       0.68871    0.73743    1.02691   1.00
H1       0.75142    0.68784    0.89979   1.00
H1       0.68869    0.73733    1.09901   1.00
H1       0.74833    0.81258    0.90099   1.00
H1       0.81084    0.76282    1.10021   1.00
C5       0.82339    0.76530    1.02228   1.00
H1       0.74824    0.81254    0.97309   1.00
H2       0.84791    0.75920    1.04256   1.00
H2       0.82716    0.74499    0.99731   1.00
H2       0.76341    0.65257    0.95744   1.00
H2       0.77250    0.67603    1.00269   1.00
N1       0.82566    0.80568    1.00857   1.00
C6       0.82692    0.83773    1.03073   1.00
C6       0.82799    0.81749    0.97154   1.00
C6       0.82956    0.87046    1.00759   1.00
C6       0.83025    0.85759    0.96995   1.00
H3       0.82565    0.83752    1.06197   1.00
H3       0.82774    0.79817    0.94700   1.00
H3       0.83087    0.90037    1.01713   1.00
H3       0.83215    0.87545    0.94425   1.00
N1       0.71308    0.66362    0.99143   1.00
C6       0.70211    0.65866    1.02846   1.00
C6       0.68216    0.65508    0.96927   1.00
C6       0.66359    0.64730    1.03005   1.00
C6       0.65090    0.64503    0.99241   1.00
H3       0.72086    0.66331    1.05300   1.00
H3       0.68207    0.65636    0.93803   1.00
H3       0.64663    0.64136    1.05575   1.00
H3       0.62208    0.63691    0.98287   1.00
C4       0.74985    0.97915    0.74988   1.00
C4       0.75015    1.02085    0.75012   1.00
C3a      0.71427    0.95746    0.75058   1.00
C3       0.74318    1.04232    0.71570   1.00
C3       0.78495    0.95768    0.74880   1.00
C3a      0.75759    1.04254    0.78492   1.00
C2       0.75005    0.89488    0.74993   1.00
C2       0.75005    1.10512    0.74994   1.00
C3       0.71495    0.91595    0.75068   1.00
C3       0.74303    1.08363    0.71568   1.00
C3       0.78501    0.91637    0.74895   1.00
C3       0.75735    1.08405    0.78428   1.00
C5       0.67506    0.97772    0.75187   1.00
H1       0.73743    1.02691    0.68871   1.00
H1       0.68784    0.89979    0.75142   1.00
H1       0.73733    1.09901    0.68869   1.00
H1       0.81258    0.90099    0.74833   1.00
H1       0.76282    1.10021    0.81084   1.00
C5       0.76530    1.02228    0.82339   1.00
H1       0.81254    0.97309    0.74824   1.00
H2       0.75920    1.04256    0.84791   1.00
H2       0.74499    0.99731    0.82716   1.00
H2       0.65257    0.95744    0.76341   1.00
H2       0.67603    1.00269    0.77250   1.00
N1       0.80568    1.00857    0.82566   1.00
C6       0.83773    1.03073    0.82692   1.00
C6       0.81749    0.97154    0.82799   1.00
C6       0.87046    1.00759    0.82956   1.00
C6       0.85759    0.96995    0.83025   1.00
H3       0.83752    1.06197    0.82565   1.00
H3       0.79817    0.94700    0.82774   1.00
H3       0.90037    1.01713    0.83087   1.00
H3       0.87545    0.94425    0.83215   1.00
N1       0.66362    0.99143    0.71308   1.00
C6       0.65866    1.02846    0.70211   1.00
C6       0.65508    0.96927    0.68216   1.00
C6       0.64730    1.03005    0.66359   1.00
C6       0.64503    0.99241    0.65090   1.00
H3       0.66331    1.05300    0.72086   1.00
H3       0.65636    0.93803    0.68207   1.00
H3       0.64136    1.05575    0.64663   1.00
H3       0.63691    0.98287    0.62208   1.00
C4       0.52085    0.74988    0.75015   1.00
C4       0.47915    0.75012    0.74985   1.00
C3a      0.54254    0.75058    0.78573   1.00
C3       0.45768    0.71570    0.75682   1.00
C3       0.54232    0.74880    0.71505   1.00
C3a      0.45746    0.78492    0.74241   1.00
C2       0.60512    0.74993    0.74995   1.00
C2       0.39488    0.74994    0.74995   1.00
C3       0.58405    0.75068    0.78505   1.00
C3       0.41637    0.71568    0.75697   1.00
C3       0.58363    0.74895    0.71499   1.00
C3       0.41595    0.78428    0.74265   1.00
C5       0.52228    0.75187    0.82494   1.00
H1       0.47309    0.68871    0.76257   1.00
H1       0.60021    0.75142    0.81216   1.00
H1       0.40099    0.68869    0.76267   1.00
H1       0.59901    0.74833    0.68742   1.00
H1       0.39979    0.81084    0.73718   1.00
C5       0.47772    0.82339    0.73470   1.00
H1       0.52691    0.74824    0.68746   1.00
H2       0.45744    0.84791    0.74080   1.00
H2       0.50269    0.82716    0.75501   1.00
H2       0.54256    0.76341    0.84743   1.00
H2       0.49731    0.77250    0.82397   1.00
N1       0.49143    0.82566    0.69432   1.00
C6       0.46927    0.82692    0.66227   1.00
C6       0.52846    0.82799    0.68251   1.00
C6       0.49241    0.82956    0.62954   1.00
C6       0.53005    0.83025    0.64241   1.00
H3       0.43803    0.82565    0.66248   1.00
H3       0.55300    0.82774    0.70183   1.00
H3       0.48287    0.83087    0.59963   1.00
H3       0.55575    0.83215    0.62455   1.00
N1       0.50857    0.71308    0.83638   1.00
C6       0.47154    0.70211    0.84134   1.00
C6       0.53073    0.68216    0.84492   1.00
C6       0.46995    0.66359    0.85270   1.00
C6       0.50759    0.65090    0.85497   1.00
H3       0.44700    0.72086    0.83669   1.00
H3       0.56197    0.68207    0.84364   1.00
H3       0.44425    0.64663    0.85864   1.00
H3       0.51713    0.62208    0.86309   1.00
C4       0.97915    0.74988    0.74985   1.00
C4       1.02085    0.75012    0.75015   1.00
C3a      0.95746    0.75058    0.71427   1.00
C3       1.04232    0.71570    0.74318   1.00
C3       0.95768    0.74880    0.78495   1.00
C3a      1.04254    0.78492    0.75759   1.00
C2       0.89488    0.74993    0.75005   1.00
C2       1.10512    0.74994    0.75005   1.00
C3       0.91595    0.75068    0.71495   1.00
C3       1.08363    0.71568    0.74303   1.00
C3       0.91637    0.74895    0.78501   1.00
C3       1.08405    0.78428    0.75735   1.00
C5       0.97772    0.75187    0.67506   1.00
H1       1.02691    0.68871    0.73743   1.00
H1       0.89979    0.75142    0.68784   1.00
H1       1.09901    0.68869    0.73733   1.00
H1       0.90099    0.74833    0.81258   1.00
H1       1.10021    0.81084    0.76282   1.00
C5       1.02228    0.82339    0.76530   1.00
H1       0.97309    0.74824    0.81254   1.00
H2       1.04256    0.84791    0.75920   1.00
H2       0.99731    0.82716    0.74499   1.00
H2       0.95744    0.76341    0.65257   1.00
H2       1.00269    0.77250    0.67603   1.00
N1       1.00857    0.82566    0.80568   1.00
C6       1.03073    0.82692    0.83773   1.00
C6       0.97154    0.82799    0.81749   1.00
C6       1.00759    0.82956    0.87046   1.00
C6       0.96995    0.83025    0.85759   1.00
H3       1.06197    0.82565    0.83752   1.00
H3       0.94700    0.82774    0.79817   1.00
H3       1.01713    0.83087    0.90037   1.00
H3       0.94425    0.83215    0.87545   1.00
N1       0.99143    0.71308    0.66362   1.00
C6       1.02846    0.70211    0.65866   1.00
C6       0.96927    0.68216    0.65508   1.00
C6       1.03005    0.66359    0.64730   1.00
C6       0.99241    0.65090    0.64503   1.00
H3       1.05300    0.72086    0.66331   1.00
H3       0.93803    0.68207    0.65636   1.00
H3       1.05575    0.64663    0.64136   1.00
H3       0.98287    0.62208    0.63691   1.00
C4       0.75015    0.52085    0.74988   1.00
C4       0.74985    0.47915    0.75012   1.00
C3a      0.78573    0.54254    0.75058   1.00
C3       0.75682    0.45768    0.71570   1.00
C3       0.71505    0.54232    0.74880   1.00
C3a      0.74241    0.45746    0.78492   1.00
C2       0.74995    0.60512    0.74993   1.00
C2       0.74995    0.39488    0.74994   1.00
C3       0.78505    0.58405    0.75068   1.00
C3       0.75697    0.41637    0.71568   1.00
C3       0.71499    0.58363    0.74895   1.00
C3       0.74265    0.41595    0.78428   1.00
C5       0.82494    0.52228    0.75187   1.00
H1       0.76257    0.47309    0.68871   1.00
H1       0.81216    0.60021    0.75142   1.00
H1       0.76267    0.40099    0.68869   1.00
H1       0.68742    0.59901    0.74833   1.00
H1       0.73718    0.39979    0.81084   1.00
C5       0.73470    0.47772    0.82339   1.00
H1       0.68746    0.52691    0.74824   1.00
H2       0.74080    0.45744    0.84791   1.00
H2       0.75501    0.50269    0.82716   1.00
H2       0.84743    0.54256    0.76341   1.00
H2       0.82397    0.49731    0.77250   1.00
N1       0.69432    0.49143    0.82566   1.00
C6       0.66227    0.46927    0.82692   1.00
C6       0.68251    0.52846    0.82799   1.00
C6       0.62954    0.49241    0.82956   1.00
C6       0.64241    0.53005    0.83025   1.00
H3       0.66248    0.43803    0.82565   1.00
H3       0.70183    0.55300    0.82774   1.00
H3       0.59963    0.48287    0.83087   1.00
H3       0.62455    0.55575    0.83215   1.00
N1       0.83638    0.50857    0.71308   1.00
C6       0.84134    0.47154    0.70211   1.00
C6       0.84492    0.53073    0.68216   1.00
C6       0.85270    0.46995    0.66359   1.00
C6       0.85497    0.50759    0.65090   1.00
H3       0.83669    0.44700    0.72086   1.00
H3       0.84364    0.56197    0.68207   1.00
H3       0.85864    0.44425    0.64663   1.00
H3       0.86309    0.51713    0.62208   1.00
C4       0.74988    0.75015    0.52085   1.00
C4       0.75012    0.74985    0.47915   1.00
C3a      0.75058    0.78573    0.54254   1.00
C3       0.71570    0.75682    0.45768   1.00
C3       0.74880    0.71505    0.54232   1.00
C3a      0.78492    0.74241    0.45746   1.00
C2       0.74993    0.74995    0.60512   1.00
C2       0.74994    0.74995    0.39488   1.00
C3       0.75068    0.78505    0.58405   1.00
C3       0.71568    0.75697    0.41637   1.00
C3       0.74895    0.71499    0.58363   1.00
C3       0.78428    0.74265    0.41595   1.00
C5       0.75187    0.82494    0.52228   1.00
H1       0.68871    0.76257    0.47309   1.00
H1       0.75142    0.81216    0.60021   1.00
H1       0.68869    0.76267    0.40099   1.00
H1       0.74833    0.68742    0.59901   1.00
H1       0.81084    0.73718    0.39979   1.00
C5       0.82339    0.73470    0.47772   1.00
H1       0.74824    0.68746    0.52691   1.00
H2       0.84791    0.74080    0.45744   1.00
H2       0.82716    0.75501    0.50269   1.00
H2       0.76341    0.84743    0.54256   1.00
H2       0.77250    0.82397    0.49731   1.00
N1       0.82566    0.69432    0.49143   1.00
C6       0.82692    0.66227    0.46927   1.00
C6       0.82799    0.68251    0.52846   1.00
C6       0.82956    0.62954    0.49241   1.00
C6       0.83025    0.64241    0.53005   1.00
H3       0.82565    0.66248    0.43803   1.00
H3       0.82774    0.70183    0.55300   1.00
H3       0.83087    0.59963    0.48287   1.00
H3       0.83215    0.62455    0.55575   1.00
N1       0.71308    0.83638    0.50857   1.00
C6       0.70211    0.84134    0.47154   1.00
C6       0.68216    0.84492    0.53073   1.00
C6       0.66359    0.85270    0.46995   1.00
C6       0.65090    0.85497    0.50759   1.00
H3       0.72086    0.83669    0.44700   1.00
H3       0.68207    0.84364    0.56197   1.00
H3       0.64663    0.85864    0.44425   1.00
H3       0.62208    0.86309    0.51713   1.00
C4       0.24988    0.24985    0.97915   1.00
C4       0.25012    0.25015    1.02085   1.00
C3a      0.25058    0.21427    0.95746   1.00
C3       0.21570    0.24318    1.04232   1.00
C3       0.24880    0.28495    0.95768   1.00
C3a      0.28492    0.25759    1.04254   1.00
C2       0.24993    0.25005    0.89488   1.00
C2       0.24994    0.25005    1.10512   1.00
C3       0.25068    0.21495    0.91595   1.00
C3       0.21568    0.24303    1.08363   1.00
C3       0.24895    0.28501    0.91637   1.00
C3       0.28428    0.25735    1.08405   1.00
C5       0.25187    0.17506    0.97772   1.00
H1       0.18871    0.23743    1.02691   1.00
H1       0.25142    0.18784    0.89979   1.00
H1       0.18869    0.23733    1.09901   1.00
H1       0.24833    0.31258    0.90099   1.00
H1       0.31084    0.26282    1.10021   1.00
C5       0.32339    0.26530    1.02228   1.00
H1       0.24824    0.31254    0.97309   1.00
H2       0.34791    0.25920    1.04256   1.00
H2       0.32716    0.24499    0.99731   1.00
H2       0.26341    0.15257    0.95744   1.00
H2       0.27250    0.17603    1.00269   1.00
N1       0.32566    0.30568    1.00857   1.00
C6       0.32692    0.33773    1.03073   1.00
C6       0.32799    0.31749    0.97154   1.00
C6       0.32956    0.37046    1.00759   1.00
C6       0.33025    0.35759    0.96995   1.00
H3       0.32565    0.33752    1.06197   1.00
H3       0.32774    0.29817    0.94700   1.00
H3       0.33087    0.40037    1.01713   1.00
H3       0.33215    0.37545    0.94425   1.00
N1       0.21308    0.16362    0.99143   1.00
C6       0.20211    0.15866    1.02846   1.00
C6       0.18216    0.15508    0.96927   1.00
C6       0.16359    0.14730    1.03005   1.00
C6       0.15090    0.14503    0.99241   1.00
H3       0.22086    0.16331    1.05300   1.00
H3       0.18207    0.15636    0.93803   1.00
H3       0.14663    0.14136    1.05575   1.00
H3       0.12208    0.13691    0.98287   1.00
C4       0.24985    0.47915    0.74988   1.00
C4       0.25015    0.52085    0.75012   1.00
C3a      0.21427    0.45746    0.75058   1.00
C3       0.24318    0.54232    0.71570   1.00
C3       0.28495    0.45768    0.74880   1.00
C3a      0.25759    0.54254    0.78492   1.00
C2       0.25005    0.39488    0.74993   1.00
C2       0.25005    0.60512    0.74994   1.00
C3       0.21495    0.41595    0.75068   1.00
C3       0.24303    0.58363    0.71568   1.00
C3       0.28501    0.41637    0.74895   1.00
C3       0.25735    0.58405    0.78428   1.00
C5       0.17506    0.47772    0.75187   1.00
H1       0.23743    0.52691    0.68871   1.00
H1       0.18784    0.39979    0.75142   1.00
H1       0.23733    0.59901    0.68869   1.00
H1       0.31258    0.40099    0.74833   1.00
H1       0.26282    0.60021    0.81084   1.00
C5       0.26530    0.52228    0.82339   1.00
H1       0.31254    0.47309    0.74824   1.00
H2       0.25920    0.54256    0.84791   1.00
H2       0.24499    0.49731    0.82716   1.00
H2       0.15257    0.45744    0.76341   1.00
H2       0.17603    0.50269    0.77250   1.00
N1       0.30568    0.50857    0.82566   1.00
C6       0.33773    0.53073    0.82692   1.00
C6       0.31749    0.47154    0.82799   1.00
C6       0.37046    0.50759    0.82956   1.00
C6       0.35759    0.46995    0.83025   1.00
H3       0.33752    0.56197    0.82565   1.00
H3       0.29817    0.44700    0.82774   1.00
H3       0.40037    0.51713    0.83087   1.00
H3       0.37545    0.44425    0.83215   1.00
N1       0.16362    0.49143    0.71308   1.00
C6       0.15866    0.52846    0.70211   1.00
C6       0.15508    0.46927    0.68216   1.00
C6       0.14730    0.53005    0.66359   1.00
C6       0.14503    0.49241    0.65090   1.00
H3       0.16331    0.55300    0.72086   1.00
H3       0.15636    0.43803    0.68207   1.00
H3       0.14136    0.55575    0.64663   1.00
H3       0.13691    0.48287    0.62208   1.00
C4       0.02085    0.24988    0.75015   1.00
C4       -0.02085   0.25012    0.74985   1.00
C3a      0.04254    0.25058    0.78573   1.00
C3       -0.04232   0.21570    0.75682   1.00
C3       0.04232    0.24880    0.71505   1.00
C3a      -0.04254   0.28492    0.74241   1.00
C2       0.10512    0.24993    0.74995   1.00
C2       -0.10512   0.24994    0.74995   1.00
C3       0.08405    0.25068    0.78505   1.00
C3       -0.08363   0.21568    0.75697   1.00
C3       0.08363    0.24895    0.71499   1.00
C3       -0.08405   0.28428    0.74265   1.00
C5       0.02228    0.25187    0.82494   1.00
H1       -0.02691   0.18871    0.76257   1.00
H1       0.10021    0.25142    0.81216   1.00
H1       -0.09901   0.18869    0.76267   1.00
H1       0.09901    0.24833    0.68742   1.00
H1       -0.10021   0.31084    0.73718   1.00
C5       -0.02228   0.32339    0.73470   1.00
H1       0.02691    0.24824    0.68746   1.00
H2       -0.04256   0.34791    0.74080   1.00
H2       0.00269    0.32716    0.75501   1.00
H2       0.04256    0.26341    0.84743   1.00
H2       -0.00269   0.27250    0.82397   1.00
N1       -0.00857   0.32566    0.69432   1.00
C6       -0.03073   0.32692    0.66227   1.00
C6       0.02846    0.32799    0.68251   1.00
C6       -0.00759   0.32956    0.62954   1.00
C6       0.03005    0.33025    0.64241   1.00
H3       -0.06197   0.32565    0.66248   1.00
H3       0.05300    0.32774    0.70183   1.00
H3       -0.01713   0.33087    0.59963   1.00
H3       0.05575    0.33215    0.62455   1.00
N1       0.00857    0.21308    0.83638   1.00
C6       -0.02846   0.20211    0.84134   1.00
C6       0.03073    0.18216    0.84492   1.00
C6       -0.03005   0.16359    0.85270   1.00
C6       0.00759    0.15090    0.85497   1.00
H3       -0.05300   0.22086    0.83669   1.00
H3       0.06197    0.18207    0.84364   1.00
H3       -0.05575   0.14663    0.85864   1.00
H3       0.01713    0.12208    0.86309   1.00
C4       0.47915    0.24988    0.74985   1.00
C4       0.52085    0.25012    0.75015   1.00
C3a      0.45746    0.25058    0.71427   1.00
C3       0.54232    0.21570    0.74318   1.00
C3       0.45768    0.24880    0.78495   1.00
C3a      0.54254    0.28492    0.75759   1.00
C2       0.39488    0.24993    0.75005   1.00
C2       0.60512    0.24994    0.75005   1.00
C3       0.41595    0.25068    0.71495   1.00
C3       0.58363    0.21568    0.74303   1.00
C3       0.41637    0.24895    0.78501   1.00
C3       0.58405    0.28428    0.75735   1.00
C5       0.47772    0.25187    0.67506   1.00
H1       0.52691    0.18871    0.73743   1.00
H1       0.39979    0.25142    0.68784   1.00
H1       0.59901    0.18869    0.73733   1.00
H1       0.40099    0.24833    0.81258   1.00
H1       0.60021    0.31084    0.76282   1.00
C5       0.52228    0.32339    0.76530   1.00
H1       0.47309    0.24824    0.81254   1.00
H2       0.54256    0.34791    0.75920   1.00
H2       0.49731    0.32716    0.74499   1.00
H2       0.45744    0.26341    0.65257   1.00
H2       0.50269    0.27250    0.67603   1.00
N1       0.50857    0.32566    0.80568   1.00
C6       0.53073    0.32692    0.83773   1.00
C6       0.47154    0.32799    0.81749   1.00
C6       0.50759    0.32956    0.87046   1.00
C6       0.46995    0.33025    0.85759   1.00
H3       0.56197    0.32565    0.83752   1.00
H3       0.44700    0.32774    0.79817   1.00
H3       0.51713    0.33087    0.90037   1.00
H3       0.44425    0.33215    0.87545   1.00
N1       0.49143    0.21308    0.66362   1.00
C6       0.52846    0.20211    0.65866   1.00
C6       0.46927    0.18216    0.65508   1.00
C6       0.53005    0.16359    0.64730   1.00
C6       0.49241    0.15090    0.64503   1.00
H3       0.55300    0.22086    0.66331   1.00
H3       0.43803    0.18207    0.65636   1.00
H3       0.55575    0.14663    0.64136   1.00
H3       0.48287    0.12208    0.63691   1.00
C4       0.25015    0.02085    0.74988   1.00
C4       0.24985    -0.02085   0.75012   1.00
C3a      0.28573    0.04254    0.75058   1.00
C3       0.25682    -0.04232   0.71570   1.00
C3       0.21505    0.04232    0.74880   1.00
C3a      0.24241    -0.04254   0.78492   1.00
C2       0.24995    0.10512    0.74993   1.00
C2       0.24995    -0.10512   0.74994   1.00
C3       0.28505    0.08405    0.75068   1.00
C3       0.25697    -0.08363   0.71568   1.00
C3       0.21499    0.08363    0.74895   1.00
C3       0.24265    -0.08405   0.78428   1.00
C5       0.32494    0.02228    0.75187   1.00
H1       0.26257    -0.02691   0.68871   1.00
H1       0.31216    0.10021    0.75142   1.00
H1       0.26267    -0.09901   0.68869   1.00
H1       0.18742    0.09901    0.74833   1.00
H1       0.23718    -0.10021   0.81084   1.00
C5       0.23470    -0.02228   0.82339   1.00
H1       0.18746    0.02691    0.74824   1.00
H2       0.24080    -0.04256   0.84791   1.00
H2       0.25501    0.00269    0.82716   1.00
H2       0.34743    0.04256    0.76341   1.00
H2       0.32397    -0.00269   0.77250   1.00
N1       0.19432    -0.00857   0.82566   1.00
C6       0.16227    -0.03073   0.82692   1.00
C6       0.18251    0.02846    0.82799   1.00
C6       0.12954    -0.00759   0.82956   1.00
C6       0.14241    0.03005    0.83025   1.00
H3       0.16248    -0.06197   0.82565   1.00
H3       0.20183    0.05300    0.82774   1.00
H3       0.09963    -0.01713   0.83087   1.00
H3       0.12455    0.05575    0.83215   1.00
N1       0.33638    0.00857    0.71308   1.00
C6       0.34134    -0.02846   0.70211   1.00
C6       0.34492    0.03073    0.68216   1.00
C6       0.35270    -0.03005   0.66359   1.00
C6       0.35497    0.00759    0.65090   1.00
H3       0.33669    -0.05300   0.72086   1.00
H3       0.34364    0.06197    0.68207   1.00
H3       0.35864    -0.05575   0.64663   1.00
H3       0.36309    0.01713    0.62208   1.00
C4       0.24988    0.25015    0.52085   1.00
C4       0.25012    0.24985    0.47915   1.00
C3a      0.25058    0.28573    0.54254   1.00
C3       0.21570    0.25682    0.45768   1.00
C3       0.24880    0.21505    0.54232   1.00
C3a      0.28492    0.24241    0.45746   1.00
C2       0.24993    0.24995    0.60512   1.00
C2       0.24994    0.24995    0.39488   1.00
C3       0.25068    0.28505    0.58405   1.00
C3       0.21568    0.25697    0.41637   1.00
C3       0.24895    0.21499    0.58363   1.00
C3       0.28428    0.24265    0.41595   1.00
C5       0.25187    0.32494    0.52228   1.00
H1       0.18871    0.26257    0.47309   1.00
H1       0.25142    0.31216    0.60021   1.00
H1       0.18869    0.26267    0.40099   1.00
H1       0.24833    0.18742    0.59901   1.00
H1       0.31084    0.23718    0.39979   1.00
C5       0.32339    0.23470    0.47772   1.00
H1       0.24824    0.18746    0.52691   1.00
H2       0.34791    0.24080    0.45744   1.00
H2       0.32716    0.25501    0.50269   1.00
H2       0.26341    0.34743    0.54256   1.00
H2       0.27250    0.32397    0.49731   1.00
N1       0.32566    0.19432    0.49143   1.00
C6       0.32692    0.16227    0.46927   1.00
C6       0.32799    0.18251    0.52846   1.00
C6       0.32956    0.12954    0.49241   1.00
C6       0.33025    0.14241    0.53005   1.00
H3       0.32565    0.16248    0.43803   1.00
H3       0.32774    0.20183    0.55300   1.00
H3       0.33087    0.09963    0.48287   1.00
H3       0.33215    0.12455    0.55575   1.00
N1       0.21308    0.33638    0.50857   1.00
C6       0.20211    0.34134    0.47154   1.00
C6       0.18216    0.34492    0.53073   1.00
C6       0.16359    0.35270    0.46995   1.00
C6       0.15090    0.35497    0.50759   1.00
H3       0.22086    0.33669    0.44700   1.00
H3       0.18207    0.34364    0.56197   1.00
H3       0.14663    0.35864    0.44425   1.00
H3       0.12208    0.36309    0.51713   1.00
C4       0.24988    0.74985    0.47915   1.00
C4       0.25012    0.75015    0.52085   1.00
C3a      0.25058    0.71427    0.45746   1.00
C3       0.21570    0.74318    0.54232   1.00
C3       0.24880    0.78495    0.45768   1.00
C3a      0.28492    0.75759    0.54254   1.00
C2       0.24993    0.75005    0.39488   1.00
C2       0.24994    0.75005    0.60512   1.00
C3       0.25068    0.71495    0.41595   1.00
C3       0.21568    0.74303    0.58363   1.00
C3       0.24895    0.78501    0.41637   1.00
C3       0.28428    0.75735    0.58405   1.00
C5       0.25187    0.67506    0.47772   1.00
H1       0.18871    0.73743    0.52691   1.00
H1       0.25142    0.68784    0.39979   1.00
H1       0.18869    0.73733    0.59901   1.00
H1       0.24833    0.81258    0.40099   1.00
H1       0.31084    0.76282    0.60021   1.00
C5       0.32339    0.76530    0.52228   1.00
H1       0.24824    0.81254    0.47309   1.00
H2       0.34791    0.75920    0.54256   1.00
H2       0.32716    0.74499    0.49731   1.00
H2       0.26341    0.65257    0.45744   1.00
H2       0.27250    0.67603    0.50269   1.00
N1       0.32566    0.80568    0.50857   1.00
C6       0.32692    0.83773    0.53073   1.00
C6       0.32799    0.81749    0.47154   1.00
C6       0.32956    0.87046    0.50759   1.00
C6       0.33025    0.85759    0.46995   1.00
H3       0.32565    0.83752    0.56197   1.00
H3       0.32774    0.79817    0.44700   1.00
H3       0.33087    0.90037    0.51713   1.00
H3       0.33215    0.87545    0.44425   1.00
N1       0.21308    0.66362    0.49143   1.00
C6       0.20211    0.65866    0.52846   1.00
C6       0.18216    0.65508    0.46927   1.00
C6       0.16359    0.64730    0.53005   1.00
C6       0.15090    0.64503    0.49241   1.00
H3       0.22086    0.66331    0.55300   1.00
H3       0.18207    0.65636    0.43803   1.00
H3       0.14663    0.64136    0.55575   1.00
H3       0.12208    0.63691    0.48287   1.00
C4       0.24985    0.97915    0.24988   1.00
C4       0.25015    1.02085    0.25012   1.00
C3a      0.21427    0.95746    0.25058   1.00
C3       0.24318    1.04232    0.21570   1.00
C3       0.28495    0.95768    0.24880   1.00
C3a      0.25759    1.04254    0.28492   1.00
C2       0.25005    0.89488    0.24993   1.00
C2       0.25005    1.10512    0.24994   1.00
C3       0.21495    0.91595    0.25068   1.00
C3       0.24303    1.08363    0.21568   1.00
C3       0.28501    0.91637    0.24895   1.00
C3       0.25735    1.08405    0.28428   1.00
C5       0.17506    0.97772    0.25187   1.00
H1       0.23743    1.02691    0.18871   1.00
H1       0.18784    0.89979    0.25142   1.00
H1       0.23733    1.09901    0.18869   1.00
H1       0.31258    0.90099    0.24833   1.00
H1       0.26282    1.10021    0.31084   1.00
C5       0.26530    1.02228    0.32339   1.00
H1       0.31254    0.97309    0.24824   1.00
H2       0.25920    1.04256    0.34791   1.00
H2       0.24499    0.99731    0.32716   1.00
H2       0.15257    0.95744    0.26341   1.00
H2       0.17603    1.00269    0.27250   1.00
N1       0.30568    1.00857    0.32566   1.00
C6       0.33773    1.03073    0.32692   1.00
C6       0.31749    0.97154    0.32799   1.00
C6       0.37046    1.00759    0.32956   1.00
C6       0.35759    0.96995    0.33025   1.00
H3       0.33752    1.06197    0.32565   1.00
H3       0.29817    0.94700    0.32774   1.00
H3       0.40037    1.01713    0.33087   1.00
H3       0.37545    0.94425    0.33215   1.00
N1       0.16362    0.99143    0.21308   1.00
C6       0.15866    1.02846    0.20211   1.00
C6       0.15508    0.96927    0.18216   1.00
C6       0.14730    1.03005    0.16359   1.00
C6       0.14503    0.99241    0.15090   1.00
H3       0.16331    1.05300    0.22086   1.00
H3       0.15636    0.93803    0.18207   1.00
H3       0.14136    1.05575    0.14663   1.00
H3       0.13691    0.98287    0.12208   1.00
C4       0.02085    0.74988    0.25015   1.00
C4       -0.02085   0.75012    0.24985   1.00
C3a      0.04254    0.75058    0.28573   1.00
C3       -0.04232   0.71570    0.25682   1.00
C3       0.04232    0.74880    0.21505   1.00
C3a      -0.04254   0.78492    0.24241   1.00
C2       0.10512    0.74993    0.24995   1.00
C2       -0.10512   0.74994    0.24995   1.00
C3       0.08405    0.75068    0.28505   1.00
C3       -0.08363   0.71568    0.25697   1.00
C3       0.08363    0.74895    0.21499   1.00
C3       -0.08405   0.78428    0.24265   1.00
C5       0.02228    0.75187    0.32494   1.00
H1       -0.02691   0.68871    0.26257   1.00
H1       0.10021    0.75142    0.31216   1.00
H1       -0.09901   0.68869    0.26267   1.00
H1       0.09901    0.74833    0.18742   1.00
H1       -0.10021   0.81084    0.23718   1.00
C5       -0.02228   0.82339    0.23470   1.00
H1       0.02691    0.74824    0.18746   1.00
H2       -0.04256   0.84791    0.24080   1.00
H2       0.00269    0.82716    0.25501   1.00
H2       0.04256    0.76341    0.34743   1.00
H2       -0.00269   0.77250    0.32397   1.00
N1       -0.00857   0.82566    0.19432   1.00
C6       -0.03073   0.82692    0.16227   1.00
C6       0.02846    0.82799    0.18251   1.00
C6       -0.00759   0.82956    0.12954   1.00
C6       0.03005    0.83025    0.14241   1.00
H3       -0.06197   0.82565    0.16248   1.00
H3       0.05300    0.82774    0.20183   1.00
H3       -0.01713   0.83087    0.09963   1.00
H3       0.05575    0.83215    0.12455   1.00
N1       0.00857    0.71308    0.33638   1.00
C6       -0.02846   0.70211    0.34134   1.00
C6       0.03073    0.68216    0.34492   1.00
C6       -0.03005   0.66359    0.35270   1.00
C6       0.00759    0.65090    0.35497   1.00
H3       -0.05300   0.72086    0.33669   1.00
H3       0.06197    0.68207    0.34364   1.00
H3       -0.05575   0.64663    0.35864   1.00
H3       0.01713    0.62208    0.36309   1.00
C4       0.47915    0.74988    0.24985   1.00
C4       0.52085    0.75012    0.25015   1.00
C3a      0.45746    0.75058    0.21427   1.00
C3       0.54232    0.71570    0.24318   1.00
C3       0.45768    0.74880    0.28495   1.00
C3a      0.54254    0.78492    0.25759   1.00
C2       0.39488    0.74993    0.25005   1.00
C2       0.60512    0.74994    0.25005   1.00
C3       0.41595    0.75068    0.21495   1.00
C3       0.58363    0.71568    0.24303   1.00
C3       0.41637    0.74895    0.28501   1.00
C3       0.58405    0.78428    0.25735   1.00
C5       0.47772    0.75187    0.17506   1.00
H1       0.52691    0.68871    0.23743   1.00
H1       0.39979    0.75142    0.18784   1.00
H1       0.59901    0.68869    0.23733   1.00
H1       0.40099    0.74833    0.31258   1.00
H1       0.60021    0.81084    0.26282   1.00
C5       0.52228    0.82339    0.26530   1.00
H1       0.47309    0.74824    0.31254   1.00
H2       0.54256    0.84791    0.25920   1.00
H2       0.49731    0.82716    0.24499   1.00
H2       0.45744    0.76341    0.15257   1.00
H2       0.50269    0.77250    0.17603   1.00
N1       0.50857    0.82566    0.30568   1.00
C6       0.53073    0.82692    0.33773   1.00
C6       0.47154    0.82799    0.31749   1.00
C6       0.50759    0.82956    0.37046   1.00
C6       0.46995    0.83025    0.35759   1.00
H3       0.56197    0.82565    0.33752   1.00
H3       0.44700    0.82774    0.29817   1.00
H3       0.51713    0.83087    0.40037   1.00
H3       0.44425    0.83215    0.37545   1.00
N1       0.49143    0.71308    0.16362   1.00
C6       0.52846    0.70211    0.15866   1.00
C6       0.46927    0.68216    0.15508   1.00
C6       0.53005    0.66359    0.14730   1.00
C6       0.49241    0.65090    0.14503   1.00
H3       0.55300    0.72086    0.16331   1.00
H3       0.43803    0.68207    0.15636   1.00
H3       0.55575    0.64663    0.14136   1.00
H3       0.48287    0.62208    0.13691   1.00
C4       0.25015    0.52085    0.24988   1.00
C4       0.24985    0.47915    0.25012   1.00
C3a      0.28573    0.54254    0.25058   1.00
C3       0.25682    0.45768    0.21570   1.00
C3       0.21505    0.54232    0.24880   1.00
C3a      0.24241    0.45746    0.28492   1.00
C2       0.24995    0.60512    0.24993   1.00
C2       0.24995    0.39488    0.24994   1.00
C3       0.28505    0.58405    0.25068   1.00
C3       0.25697    0.41637    0.21568   1.00
C3       0.21499    0.58363    0.24895   1.00
C3       0.24265    0.41595    0.28428   1.00
C5       0.32494    0.52228    0.25187   1.00
H1       0.26257    0.47309    0.18871   1.00
H1       0.31216    0.60021    0.25142   1.00
H1       0.26267    0.40099    0.18869   1.00
H1       0.18742    0.59901    0.24833   1.00
H1       0.23718    0.39979    0.31084   1.00
C5       0.23470    0.47772    0.32339   1.00
H1       0.18746    0.52691    0.24824   1.00
H2       0.24080    0.45744    0.34791   1.00
H2       0.25501    0.50269    0.32716   1.00
H2       0.34743    0.54256    0.26341   1.00
H2       0.32397    0.49731    0.27250   1.00
N1       0.19432    0.49143    0.32566   1.00
C6       0.16227    0.46927    0.32692   1.00
C6       0.18251    0.52846    0.32799   1.00
C6       0.12954    0.49241    0.32956   1.00
C6       0.14241    0.53005    0.33025   1.00
H3       0.16248    0.43803    0.32565   1.00
H3       0.20183    0.55300    0.32774   1.00
H3       0.09963    0.48287    0.33087   1.00
H3       0.12455    0.55575    0.33215   1.00
N1       0.33638    0.50857    0.21308   1.00
C6       0.34134    0.47154    0.20211   1.00
C6       0.34492    0.53073    0.18216   1.00
C6       0.35270    0.46995    0.16359   1.00
C6       0.35497    0.50759    0.15090   1.00
H3       0.33669    0.44700    0.22086   1.00
H3       0.34364    0.56197    0.18207   1.00
H3       0.35864    0.44425    0.14663   1.00
H3       0.36309    0.51713    0.12208   1.00
C4       0.24988    0.75015    0.02085   1.00
C4       0.25012    0.74985    -0.02085   1.00
C3a      0.25058    0.78573    0.04254   1.00
C3       0.21570    0.75682    -0.04232   1.00
C3       0.24880    0.71505    0.04232   1.00
C3a      0.28492    0.74241    -0.04254   1.00
C2       0.24993    0.74995    0.10512   1.00
C2       0.24994    0.74995    -0.10512   1.00
C3       0.25068    0.78505    0.08405   1.00
C3       0.21568    0.75697    -0.08363   1.00
C3       0.24895    0.71499    0.08363   1.00
C3       0.28428    0.74265    -0.08405   1.00
C5       0.25187    0.82494    0.02228   1.00
H1       0.18871    0.76257    -0.02691   1.00
H1       0.25142    0.81216    0.10021   1.00
H1       0.18869    0.76267    -0.09901   1.00
H1       0.24833    0.68742    0.09901   1.00
H1       0.31084    0.73718    -0.10021   1.00
C5       0.32339    0.73470    -0.02228   1.00
H1       0.24824    0.68746    0.02691   1.00
H2       0.34791    0.74080    -0.04256   1.00
H2       0.32716    0.75501    0.00269   1.00
H2       0.26341    0.84743    0.04256   1.00
H2       0.27250    0.82397    -0.00269   1.00
N1       0.32566    0.69432    -0.00857   1.00
C6       0.32692    0.66227    -0.03073   1.00
C6       0.32799    0.68251    0.02846   1.00
C6       0.32956    0.62954    -0.00759   1.00
C6       0.33025    0.64241    0.03005   1.00
H3       0.32565    0.66248    -0.06197   1.00
H3       0.32774    0.70183    0.05300   1.00
H3       0.33087    0.59963    -0.01713   1.00
H3       0.33215    0.62455    0.05575   1.00
N1       0.21308    0.83638    0.00857   1.00
C6       0.20211    0.84134    -0.02846   1.00
C6       0.18216    0.84492    0.03073   1.00
C6       0.16359    0.85270    -0.03005   1.00
C6       0.15090    0.85497    0.00759   1.00
H3       0.22086    0.83669    -0.05300   1.00
H3       0.18207    0.84364    0.06197   1.00
H3       0.14663    0.85864    -0.05575   1.00
H3       0.12208    0.86309    0.01713   1.00
C4       0.74988    0.24985    0.47915   1.00
C4       0.75012    0.25015    0.52085   1.00
C3a      0.75058    0.21427    0.45746   1.00
C3       0.71570    0.24318    0.54232   1.00
C3       0.74880    0.28495    0.45768   1.00
C3a      0.78492    0.25759    0.54254   1.00
C2       0.74993    0.25005    0.39488   1.00
C2       0.74994    0.25005    0.60512   1.00
C3       0.75068    0.21495    0.41595   1.00
C3       0.71568    0.24303    0.58363   1.00
C3       0.74895    0.28501    0.41637   1.00
C3       0.78428    0.25735    0.58405   1.00
C5       0.75187    0.17506    0.47772   1.00
H1       0.68871    0.23743    0.52691   1.00
H1       0.75142    0.18784    0.39979   1.00
H1       0.68869    0.23733    0.59901   1.00
H1       0.74833    0.31258    0.40099   1.00
H1       0.81084    0.26282    0.60021   1.00
C5       0.82339    0.26530    0.52228   1.00
H1       0.74824    0.31254    0.47309   1.00
H2       0.84791    0.25920    0.54256   1.00
H2       0.82716    0.24499    0.49731   1.00
H2       0.76341    0.15257    0.45744   1.00
H2       0.77250    0.17603    0.50269   1.00
N1       0.82566    0.30568    0.50857   1.00
C6       0.82692    0.33773    0.53073   1.00
C6       0.82799    0.31749    0.47154   1.00
C6       0.82956    0.37046    0.50759   1.00
C6       0.83025    0.35759    0.46995   1.00
H3       0.82565    0.33752    0.56197   1.00
H3       0.82774    0.29817    0.44700   1.00
H3       0.83087    0.40037    0.51713   1.00
H3       0.83215    0.37545    0.44425   1.00
N1       0.71308    0.16362    0.49143   1.00
C6       0.70211    0.15866    0.52846   1.00
C6       0.68216    0.15508    0.46927   1.00
C6       0.66359    0.14730    0.53005   1.00
C6       0.65090    0.14503    0.49241   1.00
H3       0.72086    0.16331    0.55300   1.00
H3       0.68207    0.15636    0.43803   1.00
H3       0.64663    0.14136    0.55575   1.00
H3       0.62208    0.13691    0.48287   1.00
C4       0.74985    0.47915    0.24988   1.00
C4       0.75015    0.52085    0.25012   1.00
C3a      0.71427    0.45746    0.25058   1.00
C3       0.74318    0.54232    0.21570   1.00
C3       0.78495    0.45768    0.24880   1.00
C3a      0.75759    0.54254    0.28492   1.00
C2       0.75005    0.39488    0.24993   1.00
C2       0.75005    0.60512    0.24994   1.00
C3       0.71495    0.41595    0.25068   1.00
C3       0.74303    0.58363    0.21568   1.00
C3       0.78501    0.41637    0.24895   1.00
C3       0.75735    0.58405    0.28428   1.00
C5       0.67506    0.47772    0.25187   1.00
H1       0.73743    0.52691    0.18871   1.00
H1       0.68784    0.39979    0.25142   1.00
H1       0.73733    0.59901    0.18869   1.00
H1       0.81258    0.40099    0.24833   1.00
H1       0.76282    0.60021    0.31084   1.00
C5       0.76530    0.52228    0.32339   1.00
H1       0.81254    0.47309    0.24824   1.00
H2       0.75920    0.54256    0.34791   1.00
H2       0.74499    0.49731    0.32716   1.00
H2       0.65257    0.45744    0.26341   1.00
H2       0.67603    0.50269    0.27250   1.00
N1       0.80568    0.50857    0.32566   1.00
C6       0.83773    0.53073    0.32692   1.00
C6       0.81749    0.47154    0.32799   1.00
C6       0.87046    0.50759    0.32956   1.00
C6       0.85759    0.46995    0.33025   1.00
H3       0.83752    0.56197    0.32565   1.00
H3       0.79817    0.44700    0.32774   1.00
H3       0.90037    0.51713    0.33087   1.00
H3       0.87545    0.44425    0.33215   1.00
N1       0.66362    0.49143    0.21308   1.00
C6       0.65866    0.52846    0.20211   1.00
C6       0.65508    0.46927    0.18216   1.00
C6       0.64730    0.53005    0.16359   1.00
C6       0.64503    0.49241    0.15090   1.00
H3       0.66331    0.55300    0.22086   1.00
H3       0.65636    0.43803    0.18207   1.00
H3       0.64136    0.55575    0.14663   1.00
H3       0.63691    0.48287    0.12208   1.00
C4       0.52085    0.24988    0.25015   1.00
C4       0.47915    0.25012    0.24985   1.00
C3a      0.54254    0.25058    0.28573   1.00
C3       0.45768    0.21570    0.25682   1.00
C3       0.54232    0.24880    0.21505   1.00
C3a      0.45746    0.28492    0.24241   1.00
C2       0.60512    0.24993    0.24995   1.00
C2       0.39488    0.24994    0.24995   1.00
C3       0.58405    0.25068    0.28505   1.00
C3       0.41637    0.21568    0.25697   1.00
C3       0.58363    0.24895    0.21499   1.00
C3       0.41595    0.28428    0.24265   1.00
C5       0.52228    0.25187    0.32494   1.00
H1       0.47309    0.18871    0.26257   1.00
H1       0.60021    0.25142    0.31216   1.00
H1       0.40099    0.18869    0.26267   1.00
H1       0.59901    0.24833    0.18742   1.00
H1       0.39979    0.31084    0.23718   1.00
C5       0.47772    0.32339    0.23470   1.00
H1       0.52691    0.24824    0.18746   1.00
H2       0.45744    0.34791    0.24080   1.00
H2       0.50269    0.32716    0.25501   1.00
H2       0.54256    0.26341    0.34743   1.00
H2       0.49731    0.27250    0.32397   1.00
N1       0.49143    0.32566    0.19432   1.00
C6       0.46927    0.32692    0.16227   1.00
C6       0.52846    0.32799    0.18251   1.00
C6       0.49241    0.32956    0.12954   1.00
C6       0.53005    0.33025    0.14241   1.00
H3       0.43803    0.32565    0.16248   1.00
H3       0.55300    0.32774    0.20183   1.00
H3       0.48287    0.33087    0.09963   1.00
H3       0.55575    0.33215    0.12455   1.00
N1       0.50857    0.21308    0.33638   1.00
C6       0.47154    0.20211    0.34134   1.00
C6       0.53073    0.18216    0.34492   1.00
C6       0.46995    0.16359    0.35270   1.00
C6       0.50759    0.15090    0.35497   1.00
H3       0.44700    0.22086    0.33669   1.00
H3       0.56197    0.18207    0.34364   1.00
H3       0.44425    0.14663    0.35864   1.00
H3       0.51713    0.12208    0.36309   1.00
C4       0.97915    0.24988    0.24985   1.00
C4       1.02085    0.25012    0.25015   1.00
C3a      0.95746    0.25058    0.21427   1.00
C3       1.04232    0.21570    0.24318   1.00
C3       0.95768    0.24880    0.28495   1.00
C3a      1.04254    0.28492    0.25759   1.00
C2       0.89488    0.24993    0.25005   1.00
C2       1.10512    0.24994    0.25005   1.00
C3       0.91595    0.25068    0.21495   1.00
C3       1.08363    0.21568    0.24303   1.00
C3       0.91637    0.24895    0.28501   1.00
C3       1.08405    0.28428    0.25735   1.00
C5       0.97772    0.25187    0.17506   1.00
H1       1.02691    0.18871    0.23743   1.00
H1       0.89979    0.25142    0.18784   1.00
H1       1.09901    0.18869    0.23733   1.00
H1       0.90099    0.24833    0.31258   1.00
H1       1.10021    0.31084    0.26282   1.00
C5       1.02228    0.32339    0.26530   1.00
H1       0.97309    0.24824    0.31254   1.00
H2       1.04256    0.34791    0.25920   1.00
H2       0.99731    0.32716    0.24499   1.00
H2       0.95744    0.26341    0.15257   1.00
H2       1.00269    0.27250    0.17603   1.00
N1       1.00857    0.32566    0.30568   1.00
C6       1.03073    0.32692    0.33773   1.00
C6       0.97154    0.32799    0.31749   1.00
C6       1.00759    0.32956    0.37046   1.00
C6       0.96995    0.33025    0.35759   1.00
H3       1.06197    0.32565    0.33752   1.00
H3       0.94700    0.32774    0.29817   1.00
H3       1.01713    0.33087    0.40037   1.00
H3       0.94425    0.33215    0.37545   1.00
N1       0.99143    0.21308    0.16362   1.00
C6       1.02846    0.20211    0.15866   1.00
C6       0.96927    0.18216    0.15508   1.00
C6       1.03005    0.16359    0.14730   1.00
C6       0.99241    0.15090    0.14503   1.00
H3       1.05300    0.22086    0.16331   1.00
H3       0.93803    0.18207    0.15636   1.00
H3       1.05575    0.14663    0.14136   1.00
H3       0.98287    0.12208    0.13691   1.00
C4       0.75015    0.02085    0.24988   1.00
C4       0.74985    -0.02085   0.25012   1.00
C3a      0.78573    0.04254    0.25058   1.00
C3       0.75682    -0.04232   0.21570   1.00
C3       0.71505    0.04232    0.24880   1.00
C3a      0.74241    -0.04254   0.28492   1.00
C2       0.74995    0.10512    0.24993   1.00
C2       0.74995    -0.10512   0.24994   1.00
C3       0.78505    0.08405    0.25068   1.00
C3       0.75697    -0.08363   0.21568   1.00
C3       0.71499    0.08363    0.24895   1.00
C3       0.74265    -0.08405   0.28428   1.00
C5       0.82494    0.02228    0.25187   1.00
H1       0.76257    -0.02691   0.18871   1.00
H1       0.81216    0.10021    0.25142   1.00
H1       0.76267    -0.09901   0.18869   1.00
H1       0.68742    0.09901    0.24833   1.00
H1       0.73718    -0.10021   0.31084   1.00
C5       0.73470    -0.02228   0.32339   1.00
H1       0.68746    0.02691    0.24824   1.00
H2       0.74080    -0.04256   0.34791   1.00
H2       0.75501    0.00269    0.32716   1.00
H2       0.84743    0.04256    0.26341   1.00
H2       0.82397    -0.00269   0.27250   1.00
N1       0.69432    -0.00857   0.32566   1.00
C6       0.66227    -0.03073   0.32692   1.00
C6       0.68251    0.02846    0.32799   1.00
C6       0.62954    -0.00759   0.32956   1.00
C6       0.64241    0.03005    0.33025   1.00
H3       0.66248    -0.06197   0.32565   1.00
H3       0.70183    0.05300    0.32774   1.00
H3       0.59963    -0.01713   0.33087   1.00
H3       0.62455    0.05575    0.33215   1.00
N1       0.83638    0.00857    0.21308   1.00
C6       0.84134    -0.02846   0.20211   1.00
C6       0.84492    0.03073    0.18216   1.00
C6       0.85270    -0.03005   0.16359   1.00
C6       0.85497    0.00759    0.15090   1.00
H3       0.83669    -0.05300   0.22086   1.00
H3       0.84364    0.06197    0.18207   1.00
H3       0.85864    -0.05575   0.14663   1.00
H3       0.86309    0.01713    0.12208   1.00
C4       0.74988    0.25015    0.02085   1.00
C4       0.75012    0.24985    -0.02085   1.00
C3a      0.75058    0.28573    0.04254   1.00
C3       0.71570    0.25682    -0.04232   1.00
C3       0.74880    0.21505    0.04232   1.00
C3a      0.78492    0.24241    -0.04254   1.00
C2       0.74993    0.24995    0.10512   1.00
C2       0.74994    0.24995    -0.10512   1.00
C3       0.75068    0.28505    0.08405   1.00
C3       0.71568    0.25697    -0.08363   1.00
C3       0.74895    0.21499    0.08363   1.00
C3       0.78428    0.24265    -0.08405   1.00
C5       0.75187    0.32494    0.02228   1.00
H1       0.68871    0.26257    -0.02691   1.00
H1       0.75142    0.31216    0.10021   1.00
H1       0.68869    0.26267    -0.09901   1.00
H1       0.74833    0.18742    0.09901   1.00
H1       0.81084    0.23718    -0.10021   1.00
C5       0.82339    0.23470    -0.02228   1.00
H1       0.74824    0.18746    0.02691   1.00
H2       0.84791    0.24080    -0.04256   1.00
H2       0.82716    0.25501    0.00269   1.00
H2       0.76341    0.34743    0.04256   1.00
H2       0.77250    0.32397    -0.00269   1.00
N1       0.82566    0.19432    -0.00857   1.00
C6       0.82692    0.16227    -0.03073   1.00
C6       0.82799    0.18251    0.02846   1.00
C6       0.82956    0.12954    -0.00759   1.00
C6       0.83025    0.14241    0.03005   1.00
H3       0.82565    0.16248    -0.06197   1.00
H3       0.82774    0.20183    0.05300   1.00
H3       0.83087    0.09963    -0.01713   1.00
H3       0.83215    0.12455    0.05575   1.00
N1       0.71308    0.33638    0.00857   1.00
C6       0.70211    0.34134    -0.02846   1.00
C6       0.68216    0.34492    0.03073   1.00
C6       0.66359    0.35270    -0.03005   1.00
C6       0.65090    0.35497    0.00759   1.00
H3       0.72086    0.33669    -0.05300   1.00
H3       0.68207    0.34364    0.06197   1.00
H3       0.64663    0.35864    -0.05575   1.00
H3       0.62208    0.36309    0.01713   1.00
C4       0.99988    0.99985    1.22915   1.00
C4       1.00012    1.00015    1.27085   1.00
C3a      1.00058    0.96427    1.20746   1.00
C3       0.96570    0.99318    1.29232   1.00
C3       0.99880    1.03495    1.20768   1.00
C3a      1.03492    1.00759    1.29254   1.00
C2       0.99993    1.00005    1.14488   1.00
C2       0.99994    1.00005    1.35512   1.00
C3       1.00068    0.96495    1.16595   1.00
C3       0.96568    0.99303    1.33363   1.00
C3       0.99895    1.03501    1.16637   1.00
C3       1.03428    1.00735    1.33405   1.00
C5       1.00187    0.92506    1.22772   1.00
H1       0.93871    0.98743    1.27691   1.00
H1       1.00142    0.93784    1.14979   1.00
H1       0.93869    0.98733    1.34901   1.00
H1       0.99833    1.06258    1.15099   1.00
H1       1.06084    1.01282    1.35021   1.00
C5       1.07339    1.01530    1.27228   1.00
H1       0.99824    1.06254    1.22309   1.00
H2       1.09791    1.00920    1.29256   1.00
H2       1.07716    0.99499    1.24731   1.00
H2       1.01341    0.90257    1.20744   1.00
H2       1.02250    0.92603    1.25269   1.00
N1       1.07566    1.05568    1.25857   1.00
C6       1.07692    1.08773    1.28073   1.00
C6       1.07799    1.06749    1.22154   1.00
C6       1.07956    1.12046    1.25759   1.00
C6       1.08025    1.10759    1.21995   1.00
H3       1.07565    1.08752    1.31197   1.00
H3       1.07774    1.04817    1.19700   1.00
H3       1.08087    1.15037    1.26713   1.00
H3       1.08215    1.12545    1.19425   1.00
N1       0.96308    0.91362    1.24143   1.00
C6       0.95211    0.90866    1.27846   1.00
C6       0.93216    0.90508    1.21927   1.00
C6       0.91359    0.89730    1.28005   1.00
C6       0.90090    0.89503    1.24241   1.00
H3       0.97086    0.91331    1.30300   1.00
H3       0.93207    0.90636    1.18803   1.00
H3       0.89663    0.89136    1.30575   1.00
H3       0.87208    0.88691    1.23287   1.00
C4       0.99985    1.22915    0.99988   1.00
C4       1.00015    1.27085    1.00012   1.00
C3a      0.96427    1.20746    1.00058   1.00
C3       0.99318    1.29232    0.96570   1.00
C3       1.03495    1.20768    0.99880   1.00
C3a      1.00759    1.29254    1.03492   1.00
C2       1.00005    1.14488    0.99993   1.00
C2       1.00005    1.35512    0.99994   1.00
C3       0.96495    1.16595    1.00068   1.00
C3       0.99303    1.33363    0.96568   1.00
C3       1.03501    1.16637    0.99895   1.00
C3       1.00735    1.33405    1.03428   1.00
C5       0.92506    1.22772    1.00187   1.00
H1       0.98743    1.27691    0.93871   1.00
H1       0.93784    1.14979    1.00142   1.00
H1       0.98733    1.34901    0.93869   1.00
H1       1.06258    1.15099    0.99833   1.00
H1       1.01282    1.35021    1.06084   1.00
C5       1.01530    1.27228    1.07339   1.00
H1       1.06254    1.22309    0.99824   1.00
H2       1.00920    1.29256    1.09791   1.00
H2       0.99499    1.24731    1.07716   1.00
H2       0.90257    1.20744    1.01341   1.00
H2       0.92603    1.25269    1.02250   1.00
N1       1.05568    1.25857    1.07566   1.00
C6       1.08773    1.28073    1.07692   1.00
C6       1.06749    1.22154    1.07799   1.00
C6       1.12046    1.25759    1.07956   1.00
C6       1.10759    1.21995    1.08025   1.00
H3       1.08752    1.31197    1.07565   1.00
H3       1.04817    1.19700    1.07774   1.00
H3       1.15037    1.26713    1.08087   1.00
H3       1.12545    1.19425    1.08215   1.00
N1       0.91362    1.24143    0.96308   1.00
C6       0.90866    1.27846    0.95211   1.00
C6       0.90508    1.21927    0.93216   1.00
C6       0.89730    1.28005    0.91359   1.00
C6       0.89503    1.24241    0.90090   1.00
H3       0.91331    1.30300    0.97086   1.00
H3       0.90636    1.18803    0.93207   1.00
H3       0.89136    1.30575    0.89663   1.00
H3       0.88691    1.23287    0.87208   1.00
C4       0.77085    0.99988    1.00015   1.00
C4       0.72915    1.00012    0.99985   1.00
C3a      0.79254    1.00058    1.03573   1.00
C3       0.70768    0.96570    1.00682   1.00
C3       0.79232    0.99880    0.96505   1.00
C3a      0.70746    1.03492    0.99241   1.00
C2       0.85512    0.99993    0.99995   1.00
C2       0.64488    0.99994    0.99995   1.00
C3       0.83405    1.00068    1.03505   1.00
C3       0.66637    0.96568    1.00697   1.00
C3       0.83363    0.99895    0.96499   1.00
C3       0.66595    1.03428    0.99265   1.00
C5       0.77228    1.00187    1.07494   1.00
H1       0.72309    0.93871    1.01257   1.00
H1       0.85021    1.00142    1.06216   1.00
H1       0.65099    0.93869    1.01267   1.00
H1       0.84901    0.99833    0.93742   1.00
H1       0.64979    1.06084    0.98718   1.00
C5       0.72772    1.07339    0.98470   1.00
H1       0.77691    0.99824    0.93746   1.00
H2       0.70744    1.09791    0.99080   1.00
H2       0.75269    1.07716    1.00501   1.00
H2       0.79256    1.01341    1.09743   1.00
H2       0.74731    1.02250    1.07397   1.00
N1       0.74143    1.07566    0.94432   1.00
C6       0.71927    1.07692    0.91227   1.00
C6       0.77846    1.07799    0.93251   1.00
C6       0.74241    1.07956    0.87954   1.00
C6       0.78005    1.08025    0.89241   1.00
H3       0.68803    1.07565    0.91248   1.00
H3       0.80300    1.07774    0.95183   1.00
H3       0.73287    1.08087    0.84963   1.00
H3       0.80575    1.08215    0.87455   1.00
N1       0.75857    0.96308    1.08638   1.00
C6       0.72154    0.95211    1.09134   1.00
C6       0.78073    0.93216    1.09492   1.00
C6       0.71995    0.91359    1.10270   1.00
C6       0.75759    0.90090    1.10497   1.00
H3       0.69700    0.97086    1.08669   1.00
H3       0.81197    0.93207    1.09364   1.00
H3       0.69425    0.89663    1.10864   1.00
H3       0.76713    0.87208    1.11309   1.00
C4       1.22915    0.99988    0.99985   1.00
C4       1.27085    1.00012    1.00015   1.00
C3a      1.20746    1.00058    0.96427   1.00
C3       1.29232    0.96570    0.99318   1.00
C3       1.20768    0.99880    1.03495   1.00
C3a      1.29254    1.03492    1.00759   1.00
C2       1.14488    0.99993    1.00005   1.00
C2       1.35512    0.99994    1.00005   1.00
C3       1.16595    1.00068    0.96495   1.00
C3       1.33363    0.96568    0.99303   1.00
C3       1.16637    0.99895    1.03501   1.00
C3       1.33405    1.03428    1.00735   1.00
C5       1.22772    1.00187    0.92506   1.00
H1       1.27691    0.93871    0.98743   1.00
H1       1.14979    1.00142    0.93784   1.00
H1       1.34901    0.93869    0.98733   1.00
H1       1.15099    0.99833    1.06258   1.00
H1       1.35021    1.06084    1.01282   1.00
C5       1.27228    1.07339    1.01530   1.00
H1       1.22309    0.99824    1.06254   1.00
H2       1.29256    1.09791    1.00920   1.00
H2       1.24731    1.07716    0.99499   1.00
H2       1.20744    1.01341    0.90257   1.00
H2       1.25269    1.02250    0.92603   1.00
N1       1.25857    1.07566    1.05568   1.00
C6       1.28073    1.07692    1.08773   1.00
C6       1.22154    1.07799    1.06749   1.00
C6       1.25759    1.07956    1.12046   1.00
C6       1.21995    1.08025    1.10759   1.00
H3       1.31197    1.07565    1.08752   1.00
H3       1.19700    1.07774    1.04817   1.00
H3       1.26713    1.08087    1.15037   1.00
H3       1.19425    1.08215    1.12545   1.00
N1       1.24143    0.96308    0.91362   1.00
C6       1.27846    0.95211    0.90866   1.00
C6       1.21927    0.93216    0.90508   1.00
C6       1.28005    0.91359    0.89730   1.00
C6       1.24241    0.90090    0.89503   1.00
H3       1.30300    0.97086    0.91331   1.00
H3       1.18803    0.93207    0.90636   1.00
H3       1.30575    0.89663    0.89136   1.00
H3       1.23287    0.87208    0.88691   1.00
C4       1.00015    0.77085    0.99988   1.00
C4       0.99985    0.72915    1.00012   1.00
C3a      1.03573    0.79254    1.00058   1.00
C3       1.00682    0.70768    0.96570   1.00
C3       0.96505    0.79232    0.99880   1.00
C3a      0.99241    0.70746    1.03492   1.00
C2       0.99995    0.85512    0.99993   1.00
C2       0.99995    0.64488    0.99994   1.00
C3       1.03505    0.83405    1.00068   1.00
C3       1.00697    0.66637    0.96568   1.00
C3       0.96499    0.83363    0.99895   1.00
C3       0.99265    0.66595    1.03428   1.00
C5       1.07494    0.77228    1.00187   1.00
H1       1.01257    0.72309    0.93871   1.00
H1       1.06216    0.85021    1.00142   1.00
H1       1.01267    0.65099    0.93869   1.00
H1       0.93742    0.84901    0.99833   1.00
H1       0.98718    0.64979    1.06084   1.00
C5       0.98470    0.72772    1.07339   1.00
H1       0.93746    0.77691    0.99824   1.00
H2       0.99080    0.70744    1.09791   1.00
H2       1.00501    0.75269    1.07716   1.00
H2       1.09743    0.79256    1.01341   1.00
H2       1.07397    0.74731    1.02250   1.00
N1       0.94432    0.74143    1.07566   1.00
C6       0.91227    0.71927    1.07692   1.00
C6       0.93251    0.77846    1.07799   1.00
C6       0.87954    0.74241    1.07956   1.00
C6       0.89241    0.78005    1.08025   1.00
H3       0.91248    0.68803    1.07565   1.00
H3       0.95183    0.80300    1.07774   1.00
H3       0.84963    0.73287    1.08087   1.00
H3       0.87455    0.80575    1.08215   1.00
N1       1.08638    0.75857    0.96308   1.00
C6       1.09134    0.72154    0.95211   1.00
C6       1.09492    0.78073    0.93216   1.00
C6       1.10270    0.71995    0.91359   1.00
C6       1.10497    0.75759    0.90090   1.00
H3       1.08669    0.69700    0.97086   1.00
H3       1.09364    0.81197    0.93207   1.00
H3       1.10864    0.69425    0.89663   1.00
H3       1.11309    0.76713    0.87208   1.00
C4       0.99988    1.00015    0.77085   1.00
C4       1.00012    0.99985    0.72915   1.00
C3a      1.00058    1.03573    0.79254   1.00
C3       0.96570    1.00682    0.70768   1.00
C3       0.99880    0.96505    0.79232   1.00
C3a      1.03492    0.99241    0.70746   1.00
C2       0.99993    0.99995    0.85512   1.00
C2       0.99994    0.99995    0.64488   1.00
C3       1.00068    1.03505    0.83405   1.00
C3       0.96568    1.00697    0.66637   1.00
C3       0.99895    0.96499    0.83363   1.00
C3       1.03428    0.99265    0.66595   1.00
C5       1.00187    1.07494    0.77228   1.00
H1       0.93871    1.01257    0.72309   1.00
H1       1.00142    1.06216    0.85021   1.00
H1       0.93869    1.01267    0.65099   1.00
H1       0.99833    0.93742    0.84901   1.00
H1       1.06084    0.98718    0.64979   1.00
C5       1.07339    0.98470    0.72772   1.00
H1       0.99824    0.93746    0.77691   1.00
H2       1.09791    0.99080    0.70744   1.00
H2       1.07716    1.00501    0.75269   1.00
H2       1.01341    1.09743    0.79256   1.00
H2       1.02250    1.07397    0.74731   1.00
N1       1.07566    0.94432    0.74143   1.00
C6       1.07692    0.91227    0.71927   1.00
C6       1.07799    0.93251    0.77846   1.00
C6       1.07956    0.87954    0.74241   1.00
C6       1.08025    0.89241    0.78005   1.00
H3       1.07565    0.91248    0.68803   1.00
H3       1.07774    0.95183    0.80300   1.00
H3       1.08087    0.84963    0.73287   1.00
H3       1.08215    0.87455    0.80575   1.00
N1       0.96308    1.08638    0.75857   1.00
C6       0.95211    1.09134    0.72154   1.00
C6       0.93216    1.09492    0.78073   1.00
C6       0.91359    1.10270    0.71995   1.00
C6       0.90090    1.10497    0.75759   1.00
H3       0.97086    1.08669    0.69700   1.00
H3       0.93207    1.09364    0.81197   1.00
H3       0.89663    1.10864    0.69425   1.00
H3       0.87208    1.11309    0.76713   1.00
C4       0.49988    0.49985    1.22915   1.00
C4       0.50012    0.50015    1.27085   1.00
C3a      0.50058    0.46427    1.20746   1.00
C3       0.46570    0.49318    1.29232   1.00
C3       0.49880    0.53495    1.20768   1.00
C3a      0.53492    0.50759    1.29254   1.00
C2       0.49993    0.50005    1.14488   1.00
C2       0.49994    0.50005    1.35512   1.00
C3       0.50068    0.46495    1.16595   1.00
C3       0.46568    0.49303    1.33363   1.00
C3       0.49895    0.53501    1.16637   1.00
C3       0.53428    0.50735    1.33405   1.00
C5       0.50187    0.42506    1.22772   1.00
H1       0.43871    0.48743    1.27691   1.00
H1       0.50142    0.43784    1.14979   1.00
H1       0.43869    0.48733    1.34901   1.00
H1       0.49833    0.56258    1.15099   1.00
H1       0.56084    0.51282    1.35021   1.00
C5       0.57339    0.51530    1.27228   1.00
H1       0.49824    0.56254    1.22309   1.00
H2       0.59791    0.50920    1.29256   1.00
H2       0.57716    0.49499    1.24731   1.00
H2       0.51341    0.40257    1.20744   1.00
H2       0.52250    0.42603    1.25269   1.00
N1       0.57566    0.55568    1.25857   1.00
C6       0.57692    0.58773    1.28073   1.00
C6       0.57799    0.56749    1.22154   1.00
C6       0.57956    0.62046    1.25759   1.00
C6       0.58025    0.60759    1.21995   1.00
H3       0.57565    0.58752    1.31197   1.00
H3       0.57774    0.54817    1.19700   1.00
H3       0.58087    0.65037    1.26713   1.00
H3       0.58215    0.62545    1.19425   1.00
N1       0.46308    0.41362    1.24143   1.00
C6       0.45211    0.40866    1.27846   1.00
C6       0.43216    0.40508    1.21927   1.00
C6       0.41359    0.39730    1.28005   1.00
C6       0.40090    0.39503    1.24241   1.00
H3       0.47086    0.41331    1.30300   1.00
H3       0.43207    0.40636    1.18803   1.00
H3       0.39663    0.39136    1.30575   1.00
H3       0.37208    0.38691    1.23287   1.00
C4       0.49985    0.72915    0.99988   1.00
C4       0.50015    0.77085    1.00012   1.00
C3a      0.46427    0.70746    1.00058   1.00
C3       0.49318    0.79232    0.96570   1.00
C3       0.53495    0.70768    0.99880   1.00
C3a      0.50759    0.79254    1.03492   1.00
C2       0.50005    0.64488    0.99993   1.00
C2       0.50005    0.85512    0.99994   1.00
C3       0.46495    0.66595    1.00068   1.00
C3       0.49303    0.83363    0.96568   1.00
C3       0.53501    0.66637    0.99895   1.00
C3       0.50735    0.83405    1.03428   1.00
C5       0.42506    0.72772    1.00187   1.00
H1       0.48743    0.77691    0.93871   1.00
H1       0.43784    0.64979    1.00142   1.00
H1       0.48733    0.84901    0.93869   1.00
H1       0.56258    0.65099    0.99833   1.00
H1       0.51282    0.85021    1.06084   1.00
C5       0.51530    0.77228    1.07339   1.00
H1       0.56254    0.72309    0.99824   1.00
H2       0.50920    0.79256    1.09791   1.00
H2       0.49499    0.74731    1.07716   1.00
H2       0.40257    0.70744    1.01341   1.00
H2       0.42603    0.75269    1.02250   1.00
N1       0.55568    0.75857    1.07566   1.00
C6       0.58773    0.78073    1.07692   1.00
C6       0.56749    0.72154    1.07799   1.00
C6       0.62046    0.75759    1.07956   1.00
C6       0.60759    0.71995    1.08025   1.00
H3       0.58752    0.81197    1.07565   1.00
H3       0.54817    0.69700    1.07774   1.00
H3       0.65037    0.76713    1.08087   1.00
H3       0.62545    0.69425    1.08215   1.00
N1       0.41362    0.74143    0.96308   1.00
C6       0.40866    0.77846    0.95211   1.00
C6       0.40508    0.71927    0.93216   1.00
C6       0.39730    0.78005    0.91359   1.00
C6       0.39503    0.74241    0.90090   1.00
H3       0.41331    0.80300    0.97086   1.00
H3       0.40636    0.68803    0.93207   1.00
H3       0.39136    0.80575    0.89663   1.00
H3       0.38691    0.73287    0.87208   1.00
C4       0.27085    0.49988    1.00015   1.00
C4       0.22915    0.50012    0.99985   1.00
C3a      0.29254    0.50058    1.03573   1.00
C3       0.20768    0.46570    1.00682   1.00
C3       0.29232    0.49880    0.96505   1.00
C3a      0.20746    0.53492    0.99241   1.00
C2       0.35512    0.49993    0.99995   1.00
C2       0.14488    0.49994    0.99995   1.00
C3       0.33405    0.50068    1.03505   1.00
C3       0.16637    0.46568    1.00697   1.00
C3       0.33363    0.49895    0.96499   1.00
C3       0.16595    0.53428    0.99265   1.00
C5       0.27228    0.50187    1.07494   1.00
H1       0.22309    0.43871    1.01257   1.00
H1       0.35021    0.50142    1.06216   1.00
H1       0.15099    0.43869    1.01267   1.00
H1       0.34901    0.49833    0.93742   1.00
H1       0.14979    0.56084    0.98718   1.00
C5       0.22772    0.57339    0.98470   1.00
H1       0.27691    0.49824    0.93746   1.00
H2       0.20744    0.59791    0.99080   1.00
H2       0.25269    0.57716    1.00501   1.00
H2       0.29256    0.51341    1.09743   1.00
H2       0.24731    0.52250    1.07397   1.00
N1       0.24143    0.57566    0.94432   1.00
C6       0.21927    0.57692    0.91227   1.00
C6       0.27846    0.57799    0.93251   1.00
C6       0.24241    0.57956    0.87954   1.00
C6       0.28005    0.58025    0.89241   1.00
H3       0.18803    0.57565    0.91248   1.00
H3       0.30300    0.57774    0.95183   1.00
H3       0.23287    0.58087    0.84963   1.00
H3       0.30575    0.58215    0.87455   1.00
N1       0.25857    0.46308    1.08638   1.00
C6       0.22154    0.45211    1.09134   1.00
C6       0.28073    0.43216    1.09492   1.00
C6       0.21995    0.41359    1.10270   1.00
C6       0.25759    0.40090    1.10497   1.00
H3       0.19700    0.47086    1.08669   1.00
H3       0.31197    0.43207    1.09364   1.00
H3       0.19425    0.39663    1.10864   1.00
H3       0.26713    0.37208    1.11309   1.00
C4       0.72915    0.49988    0.99985   1.00
C4       0.77085    0.50012    1.00015   1.00
C3a      0.70746    0.50058    0.96427   1.00
C3       0.79232    0.46570    0.99318   1.00
C3       0.70768    0.49880    1.03495   1.00
C3a      0.79254    0.53492    1.00759   1.00
C2       0.64488    0.49993    1.00005   1.00
C2       0.85512    0.49994    1.00005   1.00
C3       0.66595    0.50068    0.96495   1.00
C3       0.83363    0.46568    0.99303   1.00
C3       0.66637    0.49895    1.03501   1.00
C3       0.83405    0.53428    1.00735   1.00
C5       0.72772    0.50187    0.92506   1.00
H1       0.77691    0.43871    0.98743   1.00
H1       0.64979    0.50142    0.93784   1.00
H1       0.84901    0.43869    0.98733   1.00
H1       0.65099    0.49833    1.06258   1.00
H1       0.85021    0.56084    1.01282   1.00
C5       0.77228    0.57339    1.01530   1.00
H1       0.72309    0.49824    1.06254   1.00
H2       0.79256    0.59791    1.00920   1.00
H2       0.74731    0.57716    0.99499   1.00
H2       0.70744    0.51341    0.90257   1.00
H2       0.75269    0.52250    0.92603   1.00
N1       0.75857    0.57566    1.05568   1.00
C6       0.78073    0.57692    1.08773   1.00
C6       0.72154    0.57799    1.06749   1.00
C6       0.75759    0.57956    1.12046   1.00
C6       0.71995    0.58025    1.10759   1.00
H3       0.81197    0.57565    1.08752   1.00
H3       0.69700    0.57774    1.04817   1.00
H3       0.76713    0.58087    1.15037   1.00
H3       0.69425    0.58215    1.12545   1.00
N1       0.74143    0.46308    0.91362   1.00
C6       0.77846    0.45211    0.90866   1.00
C6       0.71927    0.43216    0.90508   1.00
C6       0.78005    0.41359    0.89730   1.00
C6       0.74241    0.40090    0.89503   1.00
H3       0.80300    0.47086    0.91331   1.00
H3       0.68803    0.43207    0.90636   1.00
H3       0.80575    0.39663    0.89136   1.00
H3       0.73287    0.37208    0.88691   1.00
C4       0.50015    0.27085    0.99988   1.00
C4       0.49985    0.22915    1.00012   1.00
C3a      0.53573    0.29254    1.00058   1.00
C3       0.50682    0.20768    0.96570   1.00
C3       0.46505    0.29232    0.99880   1.00
C3a      0.49241    0.20746    1.03492   1.00
C2       0.49995    0.35512    0.99993   1.00
C2       0.49995    0.14488    0.99994   1.00
C3       0.53505    0.33405    1.00068   1.00
C3       0.50697    0.16637    0.96568   1.00
C3       0.46499    0.33363    0.99895   1.00
C3       0.49265    0.16595    1.03428   1.00
C5       0.57494    0.27228    1.00187   1.00
H1       0.51257    0.22309    0.93871   1.00
H1       0.56216    0.35021    1.00142   1.00
H1       0.51267    0.15099    0.93869   1.00
H1       0.43742    0.34901    0.99833   1.00
H1       0.48718    0.14979    1.06084   1.00
C5       0.48470    0.22772    1.07339   1.00
H1       0.43746    0.27691    0.99824   1.00
H2       0.49080    0.20744    1.09791   1.00
H2       0.50501    0.25269    1.07716   1.00
H2       0.59743    0.29256    1.01341   1.00
H2       0.57397    0.24731    1.02250   1.00
N1       0.44432    0.24143    1.07566   1.00
C6       0.41227    0.21927    1.07692   1.00
C6       0.43251    0.27846    1.07799   1.00
C6       0.37954    0.24241    1.07956   1.00
C6       0.39241    0.28005    1.08025   1.00
H3       0.41248    0.18803    1.07565   1.00
H3       0.45183    0.30300    1.07774   1.00
H3       0.34963    0.23287    1.08087   1.00
H3       0.37455    0.30575    1.08215   1.00
N1       0.58638    0.25857    0.96308   1.00
C6       0.59134    0.22154    0.95211   1.00
C6       0.59492    0.28073    0.93216   1.00
C6       0.60270    0.21995    0.91359   1.00
C6       0.60497    0.25759    0.90090   1.00
H3       0.58669    0.19700    0.97086   1.00
H3       0.59364    0.31197    0.93207   1.00
H3       0.60864    0.19425    0.89663   1.00
H3       0.61309    0.26713    0.87208   1.00
C4       0.49988    0.50015    0.77085   1.00
C4       0.50012    0.49985    0.72915   1.00
C3a      0.50058    0.53573    0.79254   1.00
C3       0.46570    0.50682    0.70768   1.00
C3       0.49880    0.46505    0.79232   1.00
C3a      0.53492    0.49241    0.70746   1.00
C2       0.49993    0.49995    0.85512   1.00
C2       0.49994    0.49995    0.64488   1.00
C3       0.50068    0.53505    0.83405   1.00
C3       0.46568    0.50697    0.66637   1.00
C3       0.49895    0.46499    0.83363   1.00
C3       0.53428    0.49265    0.66595   1.00
C5       0.50187    0.57494    0.77228   1.00
H1       0.43871    0.51257    0.72309   1.00
H1       0.50142    0.56216    0.85021   1.00
H1       0.43869    0.51267    0.65099   1.00
H1       0.49833    0.43742    0.84901   1.00
H1       0.56084    0.48718    0.64979   1.00
C5       0.57339    0.48470    0.72772   1.00
H1       0.49824    0.43746    0.77691   1.00
H2       0.59791    0.49080    0.70744   1.00
H2       0.57716    0.50501    0.75269   1.00
H2       0.51341    0.59743    0.79256   1.00
H2       0.52250    0.57397    0.74731   1.00
N1       0.57566    0.44432    0.74143   1.00
C6       0.57692    0.41227    0.71927   1.00
C6       0.57799    0.43251    0.77846   1.00
C6       0.57956    0.37954    0.74241   1.00
C6       0.58025    0.39241    0.78005   1.00
H3       0.57565    0.41248    0.68803   1.00
H3       0.57774    0.45183    0.80300   1.00
H3       0.58087    0.34963    0.73287   1.00
H3       0.58215    0.37455    0.80575   1.00
N1       0.46308    0.58638    0.75857   1.00
C6       0.45211    0.59134    0.72154   1.00
C6       0.43216    0.59492    0.78073   1.00
C6       0.41359    0.60270    0.71995   1.00
C6       0.40090    0.60497    0.75759   1.00
H3       0.47086    0.58669    0.69700   1.00
H3       0.43207    0.59364    0.81197   1.00
H3       0.39663    0.60864    0.69425   1.00
H3       0.37208    0.61309    0.76713   1.00
C4       0.49988    0.99985    0.72915   1.00
C4       0.50012    1.00015    0.77085   1.00
C3a      0.50058    0.96427    0.70746   1.00
C3       0.46570    0.99318    0.79232   1.00
C3       0.49880    1.03495    0.70768   1.00
C3a      0.53492    1.00759    0.79254   1.00
C2       0.49993    1.00005    0.64488   1.00
C2       0.49994    1.00005    0.85512   1.00
C3       0.50068    0.96495    0.66595   1.00
C3       0.46568    0.99303    0.83363   1.00
C3       0.49895    1.03501    0.66637   1.00
C3       0.53428    1.00735    0.83405   1.00
C5       0.50187    0.92506    0.72772   1.00
H1       0.43871    0.98743    0.77691   1.00
H1       0.50142    0.93784    0.64979   1.00
H1       0.43869    0.98733    0.84901   1.00
H1       0.49833    1.06258    0.65099   1.00
H1       0.56084    1.01282    0.85021   1.00
C5       0.57339    1.01530    0.77228   1.00
H1       0.49824    1.06254    0.72309   1.00
H2       0.59791    1.00920    0.79256   1.00
H2       0.57716    0.99499    0.74731   1.00
H2       0.51341    0.90257    0.70744   1.00
H2       0.52250    0.92603    0.75269   1.00
N1       0.57566    1.05568    0.75857   1.00
C6       0.57692    1.08773    0.78073   1.00
C6       0.57799    1.06749    0.72154   1.00
C6       0.57956    1.12046    0.75759   1.00
C6       0.58025    1.10759    0.71995   1.00
H3       0.57565    1.08752    0.81197   1.00
H3       0.57774    1.04817    0.69700   1.00
H3       0.58087    1.15037    0.76713   1.00
H3       0.58215    1.12545    0.69425   1.00
N1       0.46308    0.91362    0.74143   1.00
C6       0.45211    0.90866    0.77846   1.00
C6       0.43216    0.90508    0.71927   1.00
C6       0.41359    0.89730    0.78005   1.00
C6       0.40090    0.89503    0.74241   1.00
H3       0.47086    0.91331    0.80300   1.00
H3       0.43207    0.90636    0.68803   1.00
H3       0.39663    0.89136    0.80575   1.00
H3       0.37208    0.88691    0.73287   1.00
C4       0.49985    1.22915    0.49988   1.00
C4       0.50015    1.27085    0.50012   1.00
C3a      0.46427    1.20746    0.50058   1.00
C3       0.49318    1.29232    0.46570   1.00
C3       0.53495    1.20768    0.49880   1.00
C3a      0.50759    1.29254    0.53492   1.00
C2       0.50005    1.14488    0.49993   1.00
C2       0.50005    1.35512    0.49994   1.00
C3       0.46495    1.16595    0.50068   1.00
C3       0.49303    1.33363    0.46568   1.00
C3       0.53501    1.16637    0.49895   1.00
C3       0.50735    1.33405    0.53428   1.00
C5       0.42506    1.22772    0.50187   1.00
H1       0.48743    1.27691    0.43871   1.00
H1       0.43784    1.14979    0.50142   1.00
H1       0.48733    1.34901    0.43869   1.00
H1       0.56258    1.15099    0.49833   1.00
H1       0.51282    1.35021    0.56084   1.00
C5       0.51530    1.27228    0.57339   1.00
H1       0.56254    1.22309    0.49824   1.00
H2       0.50920    1.29256    0.59791   1.00
H2       0.49499    1.24731    0.57716   1.00
H2       0.40257    1.20744    0.51341   1.00
H2       0.42603    1.25269    0.52250   1.00
N1       0.55568    1.25857    0.57566   1.00
C6       0.58773    1.28073    0.57692   1.00
C6       0.56749    1.22154    0.57799   1.00
C6       0.62046    1.25759    0.57956   1.00
C6       0.60759    1.21995    0.58025   1.00
H3       0.58752    1.31197    0.57565   1.00
H3       0.54817    1.19700    0.57774   1.00
H3       0.65037    1.26713    0.58087   1.00
H3       0.62545    1.19425    0.58215   1.00
N1       0.41362    1.24143    0.46308   1.00
C6       0.40866    1.27846    0.45211   1.00
C6       0.40508    1.21927    0.43216   1.00
C6       0.39730    1.28005    0.41359   1.00
C6       0.39503    1.24241    0.40090   1.00
H3       0.41331    1.30300    0.47086   1.00
H3       0.40636    1.18803    0.43207   1.00
H3       0.39136    1.30575    0.39663   1.00
H3       0.38691    1.23287    0.37208   1.00
C4       0.27085    0.99988    0.50015   1.00
C4       0.22915    1.00012    0.49985   1.00
C3a      0.29254    1.00058    0.53573   1.00
C3       0.20768    0.96570    0.50682   1.00
C3       0.29232    0.99880    0.46505   1.00
C3a      0.20746    1.03492    0.49241   1.00
C2       0.35512    0.99993    0.49995   1.00
C2       0.14488    0.99994    0.49995   1.00
C3       0.33405    1.00068    0.53505   1.00
C3       0.16637    0.96568    0.50697   1.00
C3       0.33363    0.99895    0.46499   1.00
C3       0.16595    1.03428    0.49265   1.00
C5       0.27228    1.00187    0.57494   1.00
H1       0.22309    0.93871    0.51257   1.00
H1       0.35021    1.00142    0.56216   1.00
H1       0.15099    0.93869    0.51267   1.00
H1       0.34901    0.99833    0.43742   1.00
H1       0.14979    1.06084    0.48718   1.00
C5       0.22772    1.07339    0.48470   1.00
H1       0.27691    0.99824    0.43746   1.00
H2       0.20744    1.09791    0.49080   1.00
H2       0.25269    1.07716    0.50501   1.00
H2       0.29256    1.01341    0.59743   1.00
H2       0.24731    1.02250    0.57397   1.00
N1       0.24143    1.07566    0.44432   1.00
C6       0.21927    1.07692    0.41227   1.00
C6       0.27846    1.07799    0.43251   1.00
C6       0.24241    1.07956    0.37954   1.00
C6       0.28005    1.08025    0.39241   1.00
H3       0.18803    1.07565    0.41248   1.00
H3       0.30300    1.07774    0.45183   1.00
H3       0.23287    1.08087    0.34963   1.00
H3       0.30575    1.08215    0.37455   1.00
N1       0.25857    0.96308    0.58638   1.00
C6       0.22154    0.95211    0.59134   1.00
C6       0.28073    0.93216    0.59492   1.00
C6       0.21995    0.91359    0.60270   1.00
C6       0.25759    0.90090    0.60497   1.00
H3       0.19700    0.97086    0.58669   1.00
H3       0.31197    0.93207    0.59364   1.00
H3       0.19425    0.89663    0.60864   1.00
H3       0.26713    0.87208    0.61309   1.00
C4       0.72915    0.99988    0.49985   1.00
C4       0.77085    1.00012    0.50015   1.00
C3a      0.70746    1.00058    0.46427   1.00
C3       0.79232    0.96570    0.49318   1.00
C3       0.70768    0.99880    0.53495   1.00
C3a      0.79254    1.03492    0.50759   1.00
C2       0.64488    0.99993    0.50005   1.00
C2       0.85512    0.99994    0.50005   1.00
C3       0.66595    1.00068    0.46495   1.00
C3       0.83363    0.96568    0.49303   1.00
C3       0.66637    0.99895    0.53501   1.00
C3       0.83405    1.03428    0.50735   1.00
C5       0.72772    1.00187    0.42506   1.00
H1       0.77691    0.93871    0.48743   1.00
H1       0.64979    1.00142    0.43784   1.00
H1       0.84901    0.93869    0.48733   1.00
H1       0.65099    0.99833    0.56258   1.00
H1       0.85021    1.06084    0.51282   1.00
C5       0.77228    1.07339    0.51530   1.00
H1       0.72309    0.99824    0.56254   1.00
H2       0.79256    1.09791    0.50920   1.00
H2       0.74731    1.07716    0.49499   1.00
H2       0.70744    1.01341    0.40257   1.00
H2       0.75269    1.02250    0.42603   1.00
N1       0.75857    1.07566    0.55568   1.00
C6       0.78073    1.07692    0.58773   1.00
C6       0.72154    1.07799    0.56749   1.00
C6       0.75759    1.07956    0.62046   1.00
C6       0.71995    1.08025    0.60759   1.00
H3       0.81197    1.07565    0.58752   1.00
H3       0.69700    1.07774    0.54817   1.00
H3       0.76713    1.08087    0.65037   1.00
H3       0.69425    1.08215    0.62545   1.00
N1       0.74143    0.96308    0.41362   1.00
C6       0.77846    0.95211    0.40866   1.00
C6       0.71927    0.93216    0.40508   1.00
C6       0.78005    0.91359    0.39730   1.00
C6       0.74241    0.90090    0.39503   1.00
H3       0.80300    0.97086    0.41331   1.00
H3       0.68803    0.93207    0.40636   1.00
H3       0.80575    0.89663    0.39136   1.00
H3       0.73287    0.87208    0.38691   1.00
C4       0.50015    0.77085    0.49988   1.00
C4       0.49985    0.72915    0.50012   1.00
C3a      0.53573    0.79254    0.50058   1.00
C3       0.50682    0.70768    0.46570   1.00
C3       0.46505    0.79232    0.49880   1.00
C3a      0.49241    0.70746    0.53492   1.00
C2       0.49995    0.85512    0.49993   1.00
C2       0.49995    0.64488    0.49994   1.00
C3       0.53505    0.83405    0.50068   1.00
C3       0.50697    0.66637    0.46568   1.00
C3       0.46499    0.83363    0.49895   1.00
C3       0.49265    0.66595    0.53428   1.00
C5       0.57494    0.77228    0.50187   1.00
H1       0.51257    0.72309    0.43871   1.00
H1       0.56216    0.85021    0.50142   1.00
H1       0.51267    0.65099    0.43869   1.00
H1       0.43742    0.84901    0.49833   1.00
H1       0.48718    0.64979    0.56084   1.00
C5       0.48470    0.72772    0.57339   1.00
H1       0.43746    0.77691    0.49824   1.00
H2       0.49080    0.70744    0.59791   1.00
H2       0.50501    0.75269    0.57716   1.00
H2       0.59743    0.79256    0.51341   1.00
H2       0.57397    0.74731    0.52250   1.00
N1       0.44432    0.74143    0.57566   1.00
C6       0.41227    0.71927    0.57692   1.00
C6       0.43251    0.77846    0.57799   1.00
C6       0.37954    0.74241    0.57956   1.00
C6       0.39241    0.78005    0.58025   1.00
H3       0.41248    0.68803    0.57565   1.00
H3       0.45183    0.80300    0.57774   1.00
H3       0.34963    0.73287    0.58087   1.00
H3       0.37455    0.80575    0.58215   1.00
N1       0.58638    0.75857    0.46308   1.00
C6       0.59134    0.72154    0.45211   1.00
C6       0.59492    0.78073    0.43216   1.00
C6       0.60270    0.71995    0.41359   1.00
C6       0.60497    0.75759    0.40090   1.00
H3       0.58669    0.69700    0.47086   1.00
H3       0.59364    0.81197    0.43207   1.00
H3       0.60864    0.69425    0.39663   1.00
H3       0.61309    0.76713    0.37208   1.00
C4       0.49988    1.00015    0.27085   1.00
C4       0.50012    0.99985    0.22915   1.00
C3a      0.50058    1.03573    0.29254   1.00
C3       0.46570    1.00682    0.20768   1.00
C3       0.49880    0.96505    0.29232   1.00
C3a      0.53492    0.99241    0.20746   1.00
C2       0.49993    0.99995    0.35512   1.00
C2       0.49994    0.99995    0.14488   1.00
C3       0.50068    1.03505    0.33405   1.00
C3       0.46568    1.00697    0.16637   1.00
C3       0.49895    0.96499    0.33363   1.00
C3       0.53428    0.99265    0.16595   1.00
C5       0.50187    1.07494    0.27228   1.00
H1       0.43871    1.01257    0.22309   1.00
H1       0.50142    1.06216    0.35021   1.00
H1       0.43869    1.01267    0.15099   1.00
H1       0.49833    0.93742    0.34901   1.00
H1       0.56084    0.98718    0.14979   1.00
C5       0.57339    0.98470    0.22772   1.00
H1       0.49824    0.93746    0.27691   1.00
H2       0.59791    0.99080    0.20744   1.00
H2       0.57716    1.00501    0.25269   1.00
H2       0.51341    1.09743    0.29256   1.00
H2       0.52250    1.07397    0.24731   1.00
N1       0.57566    0.94432    0.24143   1.00
C6       0.57692    0.91227    0.21927   1.00
C6       0.57799    0.93251    0.27846   1.00
C6       0.57956    0.87954    0.24241   1.00
C6       0.58025    0.89241    0.28005   1.00
H3       0.57565    0.91248    0.18803   1.00
H3       0.57774    0.95183    0.30300   1.00
H3       0.58087    0.84963    0.23287   1.00
H3       0.58215    0.87455    0.30575   1.00
N1       0.46308    1.08638    0.25857   1.00
C6       0.45211    1.09134    0.22154   1.00
C6       0.43216    1.09492    0.28073   1.00
C6       0.41359    1.10270    0.21995   1.00
C6       0.40090    1.10497    0.25759   1.00
H3       0.47086    1.08669    0.19700   1.00
H3       0.43207    1.09364    0.31197   1.00
H3       0.39663    1.10864    0.19425   1.00
H3       0.37208    1.11309    0.26713   1.00
C4       0.99988    0.49985    0.72915   1.00
C4       1.00012    0.50015    0.77085   1.00
C3a      1.00058    0.46427    0.70746   1.00
C3       0.96570    0.49318    0.79232   1.00
C3       0.99880    0.53495    0.70768   1.00
C3a      1.03492    0.50759    0.79254   1.00
C2       0.99993    0.50005    0.64488   1.00
C2       0.99994    0.50005    0.85512   1.00
C3       1.00068    0.46495    0.66595   1.00
C3       0.96568    0.49303    0.83363   1.00
C3       0.99895    0.53501    0.66637   1.00
C3       1.03428    0.50735    0.83405   1.00
C5       1.00187    0.42506    0.72772   1.00
H1       0.93871    0.48743    0.77691   1.00
H1       1.00142    0.43784    0.64979   1.00
H1       0.93869    0.48733    0.84901   1.00
H1       0.99833    0.56258    0.65099   1.00
H1       1.06084    0.51282    0.85021   1.00
C5       1.07339    0.51530    0.77228   1.00
H1       0.99824    0.56254    0.72309   1.00
H2       1.09791    0.50920    0.79256   1.00
H2       1.07716    0.49499    0.74731   1.00
H2       1.01341    0.40257    0.70744   1.00
H2       1.02250    0.42603    0.75269   1.00
N1       1.07566    0.55568    0.75857   1.00
C6       1.07692    0.58773    0.78073   1.00
C6       1.07799    0.56749    0.72154   1.00
C6       1.07956    0.62046    0.75759   1.00
C6       1.08025    0.60759    0.71995   1.00
H3       1.07565    0.58752    0.81197   1.00
H3       1.07774    0.54817    0.69700   1.00
H3       1.08087    0.65037    0.76713   1.00
H3       1.08215    0.62545    0.69425   1.00
N1       0.96308    0.41362    0.74143   1.00
C6       0.95211    0.40866    0.77846   1.00
C6       0.93216    0.40508    0.71927   1.00
C6       0.91359    0.39730    0.78005   1.00
C6       0.90090    0.39503    0.74241   1.00
H3       0.97086    0.41331    0.80300   1.00
H3       0.93207    0.40636    0.68803   1.00
H3       0.89663    0.39136    0.80575   1.00
H3       0.87208    0.38691    0.73287   1.00
C4       0.99985    0.72915    0.49988   1.00
C4       1.00015    0.77085    0.50012   1.00
C3a      0.96427    0.70746    0.50058   1.00
C3       0.99318    0.79232    0.46570   1.00
C3       1.03495    0.70768    0.49880   1.00
C3a      1.00759    0.79254    0.53492   1.00
C2       1.00005    0.64488    0.49993   1.00
C2       1.00005    0.85512    0.49994   1.00
C3       0.96495    0.66595    0.50068   1.00
C3       0.99303    0.83363    0.46568   1.00
C3       1.03501    0.66637    0.49895   1.00
C3       1.00735    0.83405    0.53428   1.00
C5       0.92506    0.72772    0.50187   1.00
H1       0.98743    0.77691    0.43871   1.00
H1       0.93784    0.64979    0.50142   1.00
H1       0.98733    0.84901    0.43869   1.00
H1       1.06258    0.65099    0.49833   1.00
H1       1.01282    0.85021    0.56084   1.00
C5       1.01530    0.77228    0.57339   1.00
H1       1.06254    0.72309    0.49824   1.00
H2       1.00920    0.79256    0.59791   1.00
H2       0.99499    0.74731    0.57716   1.00
H2       0.90257    0.70744    0.51341   1.00
H2       0.92603    0.75269    0.52250   1.00
N1       1.05568    0.75857    0.57566   1.00
C6       1.08773    0.78073    0.57692   1.00
C6       1.06749    0.72154    0.57799   1.00
C6       1.12046    0.75759    0.57956   1.00
C6       1.10759    0.71995    0.58025   1.00
H3       1.08752    0.81197    0.57565   1.00
H3       1.04817    0.69700    0.57774   1.00
H3       1.15037    0.76713    0.58087   1.00
H3       1.12545    0.69425    0.58215   1.00
N1       0.91362    0.74143    0.46308   1.00
C6       0.90866    0.77846    0.45211   1.00
C6       0.90508    0.71927    0.43216   1.00
C6       0.89730    0.78005    0.41359   1.00
C6       0.89503    0.74241    0.40090   1.00
H3       0.91331    0.80300    0.47086   1.00
H3       0.90636    0.68803    0.43207   1.00
H3       0.89136    0.80575    0.39663   1.00
H3       0.88691    0.73287    0.37208   1.00
C4       0.77085    0.49988    0.50015   1.00
C4       0.72915    0.50012    0.49985   1.00
C3a      0.79254    0.50058    0.53573   1.00
C3       0.70768    0.46570    0.50682   1.00
C3       0.79232    0.49880    0.46505   1.00
C3a      0.70746    0.53492    0.49241   1.00
C2       0.85512    0.49993    0.49995   1.00
C2       0.64488    0.49994    0.49995   1.00
C3       0.83405    0.50068    0.53505   1.00
C3       0.66637    0.46568    0.50697   1.00
C3       0.83363    0.49895    0.46499   1.00
C3       0.66595    0.53428    0.49265   1.00
C5       0.77228    0.50187    0.57494   1.00
H1       0.72309    0.43871    0.51257   1.00
H1       0.85021    0.50142    0.56216   1.00
H1       0.65099    0.43869    0.51267   1.00
H1       0.84901    0.49833    0.43742   1.00
H1       0.64979    0.56084    0.48718   1.00
C5       0.72772    0.57339    0.48470   1.00
H1       0.77691    0.49824    0.43746   1.00
H2       0.70744    0.59791    0.49080   1.00
H2       0.75269    0.57716    0.50501   1.00
H2       0.79256    0.51341    0.59743   1.00
H2       0.74731    0.52250    0.57397   1.00
N1       0.74143    0.57566    0.44432   1.00
C6       0.71927    0.57692    0.41227   1.00
C6       0.77846    0.57799    0.43251   1.00
C6       0.74241    0.57956    0.37954   1.00
C6       0.78005    0.58025    0.39241   1.00
H3       0.68803    0.57565    0.41248   1.00
H3       0.80300    0.57774    0.45183   1.00
H3       0.73287    0.58087    0.34963   1.00
H3       0.80575    0.58215    0.37455   1.00
N1       0.75857    0.46308    0.58638   1.00
C6       0.72154    0.45211    0.59134   1.00
C6       0.78073    0.43216    0.59492   1.00
C6       0.71995    0.41359    0.60270   1.00
C6       0.75759    0.40090    0.60497   1.00
H3       0.69700    0.47086    0.58669   1.00
H3       0.81197    0.43207    0.59364   1.00
H3       0.69425    0.39663    0.60864   1.00
H3       0.76713    0.37208    0.61309   1.00
C4       1.22915    0.49988    0.49985   1.00
C4       1.27085    0.50012    0.50015   1.00
C3a      1.20746    0.50058    0.46427   1.00
C3       1.29232    0.46570    0.49318   1.00
C3       1.20768    0.49880    0.53495   1.00
C3a      1.29254    0.53492    0.50759   1.00
C2       1.14488    0.49993    0.50005   1.00
C2       1.35512    0.49994    0.50005   1.00
C3       1.16595    0.50068    0.46495   1.00
C3       1.33363    0.46568    0.49303   1.00
C3       1.16637    0.49895    0.53501   1.00
C3       1.33405    0.53428    0.50735   1.00
C5       1.22772    0.50187    0.42506   1.00
H1       1.27691    0.43871    0.48743   1.00
H1       1.14979    0.50142    0.43784   1.00
H1       1.34901    0.43869    0.48733   1.00
H1       1.15099    0.49833    0.56258   1.00
H1       1.35021    0.56084    0.51282   1.00
C5       1.27228    0.57339    0.51530   1.00
H1       1.22309    0.49824    0.56254   1.00
H2       1.29256    0.59791    0.50920   1.00
H2       1.24731    0.57716    0.49499   1.00
H2       1.20744    0.51341    0.40257   1.00
H2       1.25269    0.52250    0.42603   1.00
N1       1.25857    0.57566    0.55568   1.00
C6       1.28073    0.57692    0.58773   1.00
C6       1.22154    0.57799    0.56749   1.00
C6       1.25759    0.57956    0.62046   1.00
C6       1.21995    0.58025    0.60759   1.00
H3       1.31197    0.57565    0.58752   1.00
H3       1.19700    0.57774    0.54817   1.00
H3       1.26713    0.58087    0.65037   1.00
H3       1.19425    0.58215    0.62545   1.00
N1       1.24143    0.46308    0.41362   1.00
C6       1.27846    0.45211    0.40866   1.00
C6       1.21927    0.43216    0.40508   1.00
C6       1.28005    0.41359    0.39730   1.00
C6       1.24241    0.40090    0.39503   1.00
H3       1.30300    0.47086    0.41331   1.00
H3       1.18803    0.43207    0.40636   1.00
H3       1.30575    0.39663    0.39136   1.00
H3       1.23287    0.37208    0.38691   1.00
C4       1.00015    0.27085    0.49988   1.00
C4       0.99985    0.22915    0.50012   1.00
C3a      1.03573    0.29254    0.50058   1.00
C3       1.00682    0.20768    0.46570   1.00
C3       0.96505    0.29232    0.49880   1.00
C3a      0.99241    0.20746    0.53492   1.00
C2       0.99995    0.35512    0.49993   1.00
C2       0.99995    0.14488    0.49994   1.00
C3       1.03505    0.33405    0.50068   1.00
C3       1.00697    0.16637    0.46568   1.00
C3       0.96499    0.33363    0.49895   1.00
C3       0.99265    0.16595    0.53428   1.00
C5       1.07494    0.27228    0.50187   1.00
H1       1.01257    0.22309    0.43871   1.00
H1       1.06216    0.35021    0.50142   1.00
H1       1.01267    0.15099    0.43869   1.00
H1       0.93742    0.34901    0.49833   1.00
H1       0.98718    0.14979    0.56084   1.00
C5       0.98470    0.22772    0.57339   1.00
H1       0.93746    0.27691    0.49824   1.00
H2       0.99080    0.20744    0.59791   1.00
H2       1.00501    0.25269    0.57716   1.00
H2       1.09743    0.29256    0.51341   1.00
H2       1.07397    0.24731    0.52250   1.00
N1       0.94432    0.24143    0.57566   1.00
C6       0.91227    0.21927    0.57692   1.00
C6       0.93251    0.27846    0.57799   1.00
C6       0.87954    0.24241    0.57956   1.00
C6       0.89241    0.28005    0.58025   1.00
H3       0.91248    0.18803    0.57565   1.00
H3       0.95183    0.30300    0.57774   1.00
H3       0.84963    0.23287    0.58087   1.00
H3       0.87455    0.30575    0.58215   1.00
N1       1.08638    0.25857    0.46308   1.00
C6       1.09134    0.22154    0.45211   1.00
C6       1.09492    0.28073    0.43216   1.00
C6       1.10270    0.21995    0.41359   1.00
C6       1.10497    0.25759    0.40090   1.00
H3       1.08669    0.19700    0.47086   1.00
H3       1.09364    0.31197    0.43207   1.00
H3       1.10864    0.19425    0.39663   1.00
H3       1.11309    0.26713    0.37208   1.00
C4       0.99988    0.50015    0.27085   1.00
C4       1.00012    0.49985    0.22915   1.00
C3a      1.00058    0.53573    0.29254   1.00
C3       0.96570    0.50682    0.20768   1.00
C3       0.99880    0.46505    0.29232   1.00
C3a      1.03492    0.49241    0.20746   1.00
C2       0.99993    0.49995    0.35512   1.00
C2       0.99994    0.49995    0.14488   1.00
C3       1.00068    0.53505    0.33405   1.00
C3       0.96568    0.50697    0.16637   1.00
C3       0.99895    0.46499    0.33363   1.00
C3       1.03428    0.49265    0.16595   1.00
C5       1.00187    0.57494    0.27228   1.00
H1       0.93871    0.51257    0.22309   1.00
H1       1.00142    0.56216    0.35021   1.00
H1       0.93869    0.51267    0.15099   1.00
H1       0.99833    0.43742    0.34901   1.00
H1       1.06084    0.48718    0.14979   1.00
C5       1.07339    0.48470    0.22772   1.00
H1       0.99824    0.43746    0.27691   1.00
H2       1.09791    0.49080    0.20744   1.00
H2       1.07716    0.50501    0.25269   1.00
H2       1.01341    0.59743    0.29256   1.00
H2       1.02250    0.57397    0.24731   1.00
N1       1.07566    0.44432    0.24143   1.00
C6       1.07692    0.41227    0.21927   1.00
C6       1.07799    0.43251    0.27846   1.00
C6       1.07956    0.37954    0.24241   1.00
C6       1.08025    0.39241    0.28005   1.00
H3       1.07565    0.41248    0.18803   1.00
H3       1.07774    0.45183    0.30300   1.00
H3       1.08087    0.34963    0.23287   1.00
H3       1.08215    0.37455    0.30575   1.00
N1       0.96308    0.58638    0.25857   1.00
C6       0.95211    0.59134    0.22154   1.00
C6       0.93216    0.59492    0.28073   1.00
C6       0.91359    0.60270    0.21995   1.00
C6       0.90090    0.60497    0.25759   1.00
H3       0.97086    0.58669    0.19700   1.00
H3       0.93207    0.59364    0.31197   1.00
H3       0.89663    0.60864    0.19425   1.00
H3       0.87208    0.61309    0.26713   1.00
