data_IRMOF10_SG202_interpen_Ligand4lp_label_y.

_audit_creation_method             'generated by an auxiliary program of Tobunporous'

_symmetry_space_group_name_H-M     'P 1'
_symmetry_Int_Tables_number        1
_symmetry_cell_setting             triclinic

_cell_length_a                    34.2800
_cell_length_b                    34.2800
_cell_length_c                    34.2800
_cell_angle_alpha                 90.0000
_cell_angle_beta                  90.0000
_cell_angle_gamma                 90.0000

loop_
_atom_site_label
_atom_site_fract_x
_atom_site_fract_y
_atom_site_fract_z
_atom_site_occupancy
O1       0.75000    0.75000    0.75000   1.00
Zn1      0.71720    0.78280    0.78280   1.00
Zn1      0.78280    0.71720    0.78280   1.00
Zn1      0.78280    0.78280    0.71720   1.00
Zn1      0.71720    0.71720    0.71720   1.00
O2       0.72650    0.77350    0.83820   1.00
O2       0.72650    0.83820    0.77350   1.00
O2       0.66180    0.77350    0.77350   1.00
O2       0.77350    0.72650    0.83820   1.00
O2       0.83820    0.72650    0.77350   1.00
O2       0.77350    0.66180    0.77350   1.00
O2       0.77350    0.83820    0.72650   1.00
O2       0.83820    0.77350    0.72650   1.00
O2       0.77350    0.77350    0.66180   1.00
O2       0.66180    0.72650    0.72650   1.00
O2       0.72650    0.66180    0.72650   1.00
O2       0.72650    0.72650    0.66180   1.00
C1       0.75000    0.75000    0.85520   1.00
C1       0.75000    0.85520    0.75000   1.00
C1       0.64480    0.75000    0.75000   1.00
C1       0.85520    0.75000    0.75000   1.00
C1       0.75000    0.64480    0.75000   1.00
C1       0.75000    0.75000    0.64480   1.00
O1       0.25000    0.25000    0.75000   1.00
Zn1      0.21720    0.28280    0.78280   1.00
Zn1      0.28280    0.21720    0.78280   1.00
Zn1      0.28280    0.28280    0.71720   1.00
Zn1      0.21720    0.21720    0.71720   1.00
O2       0.22650    0.27350    0.83820   1.00
O2       0.22650    0.33820    0.77350   1.00
O2       0.16180    0.27350    0.77350   1.00
O2       0.27350    0.22650    0.83820   1.00
O2       0.33820    0.22650    0.77350   1.00
O2       0.27350    0.16180    0.77350   1.00
O2       0.27350    0.33820    0.72650   1.00
O2       0.33820    0.27350    0.72650   1.00
O2       0.27350    0.27350    0.66180   1.00
O2       0.16180    0.22650    0.72650   1.00
O2       0.22650    0.16180    0.72650   1.00
O2       0.22650    0.22650    0.66180   1.00
C1       0.25000    0.25000    0.85520   1.00
C1       0.25000    0.35520    0.75000   1.00
C1       0.14480    0.25000    0.75000   1.00
C1       0.35520    0.25000    0.75000   1.00
C1       0.25000    0.14480    0.75000   1.00
C1       0.25000    0.25000    0.64480   1.00
O1       0.25000    0.75000    0.25000   1.00
Zn1      0.21720    0.78280    0.28280   1.00
Zn1      0.28280    0.71720    0.28280   1.00
Zn1      0.28280    0.78280    0.21720   1.00
Zn1      0.21720    0.71720    0.21720   1.00
O2       0.22650    0.77350    0.33820   1.00
O2       0.22650    0.83820    0.27350   1.00
O2       0.16180    0.77350    0.27350   1.00
O2       0.27350    0.72650    0.33820   1.00
O2       0.33820    0.72650    0.27350   1.00
O2       0.27350    0.66180    0.27350   1.00
O2       0.27350    0.83820    0.22650   1.00
O2       0.33820    0.77350    0.22650   1.00
O2       0.27350    0.77350    0.16180   1.00
O2       0.16180    0.72650    0.22650   1.00
O2       0.22650    0.66180    0.22650   1.00
O2       0.22650    0.72650    0.16180   1.00
C1       0.25000    0.75000    0.35520   1.00
C1       0.25000    0.85520    0.25000   1.00
C1       0.14480    0.75000    0.25000   1.00
C1       0.35520    0.75000    0.25000   1.00
C1       0.25000    0.64480    0.25000   1.00
C1       0.25000    0.75000    0.14480   1.00
O1       0.75000    0.25000    0.25000   1.00
Zn1      0.71720    0.28280    0.28280   1.00
Zn1      0.78280    0.21720    0.28280   1.00
Zn1      0.78280    0.28280    0.21720   1.00
Zn1      0.71720    0.21720    0.21720   1.00
O2       0.72650    0.27350    0.33820   1.00
O2       0.72650    0.33820    0.27350   1.00
O2       0.66180    0.27350    0.27350   1.00
O2       0.77350    0.22650    0.33820   1.00
O2       0.83820    0.22650    0.27350   1.00
O2       0.77350    0.16180    0.27350   1.00
O2       0.77350    0.33820    0.22650   1.00
O2       0.83820    0.27350    0.22650   1.00
O2       0.77350    0.27350    0.16180   1.00
O2       0.66180    0.22650    0.22650   1.00
O2       0.72650    0.16180    0.22650   1.00
O2       0.72650    0.22650    0.16180   1.00
C1       0.75000    0.25000    0.35520   1.00
C1       0.75000    0.35520    0.25000   1.00
C1       0.64480    0.25000    0.25000   1.00
C1       0.85520    0.25000    0.25000   1.00
C1       0.75000    0.14480    0.25000   1.00
C1       0.75000    0.25000    0.14480   1.00
O1       0.25000    0.25000    0.25000   1.00
Zn1      0.28280    0.21720    0.21720   1.00
Zn1      0.21720    0.28280    0.21720   1.00
Zn1      0.21720    0.21720    0.28280   1.00
Zn1      0.28280    0.28280    0.28280   1.00
O2       0.27350    0.22650    0.16180   1.00
O2       0.27350    0.16180    0.22650   1.00
O2       0.33820    0.22650    0.22650   1.00
O2       0.22650    0.27350    0.16180   1.00
O2       0.16180    0.27350    0.22650   1.00
O2       0.22650    0.33820    0.22650   1.00
O2       0.22650    0.16180    0.27350   1.00
O2       0.16180    0.22650    0.27350   1.00
O2       0.22650    0.22650    0.33820   1.00
O2       0.33820    0.27350    0.27350   1.00
O2       0.27350    0.33820    0.27350   1.00
O2       0.27350    0.27350    0.33820   1.00
C1       0.25000    0.25000    0.14480   1.00
C1       0.25000    0.14480    0.25000   1.00
C1       0.35520    0.25000    0.25000   1.00
C1       0.14480    0.25000    0.25000   1.00
C1       0.25000    0.35520    0.25000   1.00
C1       0.25000    0.25000    0.35520   1.00
O1       0.75000    0.75000    0.25000   1.00
Zn1      0.78280    0.71720    0.21720   1.00
Zn1      0.71720    0.78280    0.21720   1.00
Zn1      0.71720    0.71720    0.28280   1.00
Zn1      0.78280    0.78280    0.28280   1.00
O2       0.77350    0.72650    0.16180   1.00
O2       0.77350    0.66180    0.22650   1.00
O2       0.83820    0.72650    0.22650   1.00
O2       0.72650    0.77350    0.16180   1.00
O2       0.66180    0.77350    0.22650   1.00
O2       0.72650    0.83820    0.22650   1.00
O2       0.72650    0.66180    0.27350   1.00
O2       0.66180    0.72650    0.27350   1.00
O2       0.72650    0.72650    0.33820   1.00
O2       0.83820    0.77350    0.27350   1.00
O2       0.77350    0.83820    0.27350   1.00
O2       0.77350    0.77350    0.33820   1.00
C1       0.75000    0.75000    0.14480   1.00
C1       0.75000    0.64480    0.25000   1.00
C1       0.85520    0.75000    0.25000   1.00
C1       0.64480    0.75000    0.25000   1.00
C1       0.75000    0.85520    0.25000   1.00
C1       0.75000    0.75000    0.35520   1.00
O1       0.75000    0.25000    0.75000   1.00
Zn1      0.78280    0.21720    0.71720   1.00
Zn1      0.71720    0.28280    0.71720   1.00
Zn1      0.71720    0.21720    0.78280   1.00
Zn1      0.78280    0.28280    0.78280   1.00
O2       0.77350    0.22650    0.66180   1.00
O2       0.77350    0.16180    0.72650   1.00
O2       0.83820    0.22650    0.72650   1.00
O2       0.72650    0.27350    0.66180   1.00
O2       0.66180    0.27350    0.72650   1.00
O2       0.72650    0.33820    0.72650   1.00
O2       0.72650    0.16180    0.77350   1.00
O2       0.66180    0.22650    0.77350   1.00
O2       0.72650    0.22650    0.83820   1.00
O2       0.83820    0.27350    0.77350   1.00
O2       0.77350    0.33820    0.77350   1.00
O2       0.77350    0.27350    0.83820   1.00
C1       0.75000    0.25000    0.64480   1.00
C1       0.75000    0.14480    0.75000   1.00
C1       0.85520    0.25000    0.75000   1.00
C1       0.64480    0.25000    0.75000   1.00
C1       0.75000    0.35520    0.75000   1.00
C1       0.75000    0.25000    0.85520   1.00
O1       0.25000    0.75000    0.75000   1.00
Zn1      0.28280    0.71720    0.71720   1.00
Zn1      0.21720    0.78280    0.71720   1.00
Zn1      0.21720    0.71720    0.78280   1.00
Zn1      0.28280    0.78280    0.78280   1.00
O2       0.27350    0.72650    0.66180   1.00
O2       0.27350    0.66180    0.72650   1.00
O2       0.33820    0.72650    0.72650   1.00
O2       0.22650    0.77350    0.66180   1.00
O2       0.16180    0.77350    0.72650   1.00
O2       0.22650    0.83820    0.72650   1.00
O2       0.22650    0.66180    0.77350   1.00
O2       0.16180    0.72650    0.77350   1.00
O2       0.22650    0.72650    0.83820   1.00
O2       0.33820    0.77350    0.77350   1.00
O2       0.27350    0.83820    0.77350   1.00
O2       0.27350    0.77350    0.83820   1.00
C1       0.25000    0.75000    0.64480   1.00
C1       0.25000    0.64480    0.75000   1.00
C1       0.35520    0.75000    0.75000   1.00
C1       0.14480    0.75000    0.75000   1.00
C1       0.25000    0.85520    0.75000   1.00
C1       0.25000    0.75000    0.85520   1.00
O1       1.00000    1.00000    1.00000   1.00
Zn1      0.96720    1.03280    1.03280   1.00
Zn1      1.03280    0.96720    1.03280   1.00
Zn1      1.03280    1.03280    0.96720   1.00
Zn1      0.96720    0.96720    0.96720   1.00
O2       0.97650    1.02350    1.08820   1.00
O2       0.97650    1.08820    1.02350   1.00
O2       0.91180    1.02350    1.02350   1.00
O2       1.02350    0.97650    1.08820   1.00
O2       1.08820    0.97650    1.02350   1.00
O2       1.02350    0.91180    1.02350   1.00
O2       1.02350    1.08820    0.97650   1.00
O2       1.08820    1.02350    0.97650   1.00
O2       1.02350    1.02350    0.91180   1.00
O2       0.91180    0.97650    0.97650   1.00
O2       0.97650    0.91180    0.97650   1.00
O2       0.97650    0.97650    0.91180   1.00
C1       1.00000    1.00000    1.10520   1.00
C1       1.00000    1.10520    1.00000   1.00
C1       0.89480    1.00000    1.00000   1.00
C1       1.10520    1.00000    1.00000   1.00
C1       1.00000    0.89480    1.00000   1.00
C1       1.00000    1.00000    0.89480   1.00
O1       0.50000    0.50000    1.00000   1.00
Zn1      0.46720    0.53280    1.03280   1.00
Zn1      0.53280    0.46720    1.03280   1.00
Zn1      0.53280    0.53280    0.96720   1.00
Zn1      0.46720    0.46720    0.96720   1.00
O2       0.47650    0.52350    1.08820   1.00
O2       0.47650    0.58820    1.02350   1.00
O2       0.41180    0.52350    1.02350   1.00
O2       0.52350    0.47650    1.08820   1.00
O2       0.58820    0.47650    1.02350   1.00
O2       0.52350    0.41180    1.02350   1.00
O2       0.52350    0.58820    0.97650   1.00
O2       0.58820    0.52350    0.97650   1.00
O2       0.52350    0.52350    0.91180   1.00
O2       0.41180    0.47650    0.97650   1.00
O2       0.47650    0.41180    0.97650   1.00
O2       0.47650    0.47650    0.91180   1.00
C1       0.50000    0.50000    1.10520   1.00
C1       0.50000    0.60520    1.00000   1.00
C1       0.39480    0.50000    1.00000   1.00
C1       0.60520    0.50000    1.00000   1.00
C1       0.50000    0.39480    1.00000   1.00
C1       0.50000    0.50000    0.89480   1.00
O1       0.50000    1.00000    0.50000   1.00
Zn1      0.46720    1.03280    0.53280   1.00
Zn1      0.53280    0.96720    0.53280   1.00
Zn1      0.53280    1.03280    0.46720   1.00
Zn1      0.46720    0.96720    0.46720   1.00
O2       0.47650    1.02350    0.58820   1.00
O2       0.47650    1.08820    0.52350   1.00
O2       0.41180    1.02350    0.52350   1.00
O2       0.52350    0.97650    0.58820   1.00
O2       0.58820    0.97650    0.52350   1.00
O2       0.52350    0.91180    0.52350   1.00
O2       0.52350    1.08820    0.47650   1.00
O2       0.58820    1.02350    0.47650   1.00
O2       0.52350    1.02350    0.41180   1.00
O2       0.41180    0.97650    0.47650   1.00
O2       0.47650    0.91180    0.47650   1.00
O2       0.47650    0.97650    0.41180   1.00
C1       0.50000    1.00000    0.60520   1.00
C1       0.50000    1.10520    0.50000   1.00
C1       0.39480    1.00000    0.50000   1.00
C1       0.60520    1.00000    0.50000   1.00
C1       0.50000    0.89480    0.50000   1.00
C1       0.50000    1.00000    0.39480   1.00
O1       1.00000    0.50000    0.50000   1.00
Zn1      0.96720    0.53280    0.53280   1.00
Zn1      1.03280    0.46720    0.53280   1.00
Zn1      1.03280    0.53280    0.46720   1.00
Zn1      0.96720    0.46720    0.46720   1.00
O2       0.97650    0.52350    0.58820   1.00
O2       0.97650    0.58820    0.52350   1.00
O2       0.91180    0.52350    0.52350   1.00
O2       1.02350    0.47650    0.58820   1.00
O2       1.08820    0.47650    0.52350   1.00
O2       1.02350    0.41180    0.52350   1.00
O2       1.02350    0.58820    0.47650   1.00
O2       1.08820    0.52350    0.47650   1.00
O2       1.02350    0.52350    0.41180   1.00
O2       0.91180    0.47650    0.47650   1.00
O2       0.97650    0.41180    0.47650   1.00
O2       0.97650    0.47650    0.41180   1.00
C1       1.00000    0.50000    0.60520   1.00
C1       1.00000    0.60520    0.50000   1.00
C1       0.89480    0.50000    0.50000   1.00
C1       1.10520    0.50000    0.50000   1.00
C1       1.00000    0.39480    0.50000   1.00
C1       1.00000    0.50000    0.39480   1.00
O1       0.50000    0.50000    0.50000   1.00
Zn1      0.53280    0.46720    0.46720   1.00
Zn1      0.46720    0.53280    0.46720   1.00
Zn1      0.46720    0.46720    0.53280   1.00
Zn1      0.53280    0.53280    0.53280   1.00
O2       0.52350    0.47650    0.41180   1.00
O2       0.52350    0.41180    0.47650   1.00
O2       0.58820    0.47650    0.47650   1.00
O2       0.47650    0.52350    0.41180   1.00
O2       0.41180    0.52350    0.47650   1.00
O2       0.47650    0.58820    0.47650   1.00
O2       0.47650    0.41180    0.52350   1.00
O2       0.41180    0.47650    0.52350   1.00
O2       0.47650    0.47650    0.58820   1.00
O2       0.58820    0.52350    0.52350   1.00
O2       0.52350    0.58820    0.52350   1.00
O2       0.52350    0.52350    0.58820   1.00
C1       0.50000    0.50000    0.39480   1.00
C1       0.50000    0.39480    0.50000   1.00
C1       0.60520    0.50000    0.50000   1.00
C1       0.39480    0.50000    0.50000   1.00
C1       0.50000    0.60520    0.50000   1.00
C1       0.50000    0.50000    0.60520   1.00
O1       1.00000    1.00000    0.50000   1.00
Zn1      1.03280    0.96720    0.46720   1.00
Zn1      0.96720    1.03280    0.46720   1.00
Zn1      0.96720    0.96720    0.53280   1.00
Zn1      1.03280    1.03280    0.53280   1.00
O2       1.02350    0.97650    0.41180   1.00
O2       1.02350    0.91180    0.47650   1.00
O2       1.08820    0.97650    0.47650   1.00
O2       0.97650    1.02350    0.41180   1.00
O2       0.91180    1.02350    0.47650   1.00
O2       0.97650    1.08820    0.47650   1.00
O2       0.97650    0.91180    0.52350   1.00
O2       0.91180    0.97650    0.52350   1.00
O2       0.97650    0.97650    0.58820   1.00
O2       1.08820    1.02350    0.52350   1.00
O2       1.02350    1.08820    0.52350   1.00
O2       1.02350    1.02350    0.58820   1.00
C1       1.00000    1.00000    0.39480   1.00
C1       1.00000    0.89480    0.50000   1.00
C1       1.10520    1.00000    0.50000   1.00
C1       0.89480    1.00000    0.50000   1.00
C1       1.00000    1.10520    0.50000   1.00
C1       1.00000    1.00000    0.60520   1.00
O1       1.00000    0.50000    1.00000   1.00
Zn1      1.03280    0.46720    0.96720   1.00
Zn1      0.96720    0.53280    0.96720   1.00
Zn1      0.96720    0.46720    1.03280   1.00
Zn1      1.03280    0.53280    1.03280   1.00
O2       1.02350    0.47650    0.91180   1.00
O2       1.02350    0.41180    0.97650   1.00
O2       1.08820    0.47650    0.97650   1.00
O2       0.97650    0.52350    0.91180   1.00
O2       0.91180    0.52350    0.97650   1.00
O2       0.97650    0.58820    0.97650   1.00
O2       0.97650    0.41180    1.02350   1.00
O2       0.91180    0.47650    1.02350   1.00
O2       0.97650    0.47650    1.08820   1.00
O2       1.08820    0.52350    1.02350   1.00
O2       1.02350    0.58820    1.02350   1.00
O2       1.02350    0.52350    1.08820   1.00
C1       1.00000    0.50000    0.89480   1.00
C1       1.00000    0.39480    1.00000   1.00
C1       1.10520    0.50000    1.00000   1.00
C1       0.89480    0.50000    1.00000   1.00
C1       1.00000    0.60520    1.00000   1.00
C1       1.00000    0.50000    1.10520   1.00
O1       0.50000    1.00000    1.00000   1.00
Zn1      0.53280    0.96720    0.96720   1.00
Zn1      0.46720    1.03280    0.96720   1.00
Zn1      0.46720    0.96720    1.03280   1.00
Zn1      0.53280    1.03280    1.03280   1.00
O2       0.52350    0.97650    0.91180   1.00
O2       0.52350    0.91180    0.97650   1.00
O2       0.58820    0.97650    0.97650   1.00
O2       0.47650    1.02350    0.91180   1.00
O2       0.41180    1.02350    0.97650   1.00
O2       0.47650    1.08820    0.97650   1.00
O2       0.47650    0.91180    1.02350   1.00
O2       0.41180    0.97650    1.02350   1.00
O2       0.47650    0.97650    1.08820   1.00
O2       0.58820    1.02350    1.02350   1.00
O2       0.52350    1.08820    1.02350   1.00
O2       0.52350    1.02350    1.08820   1.00
C1       0.50000    1.00000    0.89480   1.00
C1       0.50000    0.89480    1.00000   1.00
C1       0.60520    1.00000    1.00000   1.00
C1       0.39480    1.00000    1.00000   1.00
C1       0.50000    1.10520    1.00000   1.00
C1       0.50000    1.00000    1.10520   1.00
C4       0.75410    0.74751    0.98025   1.00
C4       0.75424    0.74597    1.02191   1.00
C3       0.77468    0.77672    0.95897   1.00
C3       0.77817    0.77090    1.04504   1.00
C3       0.73266    0.71904    0.95854   1.00
C3       0.72974    0.71859    1.04170   1.00
C2       0.75540    0.74953    0.89595   1.00
C2       0.75314    0.74420    1.10622   1.00
C3       0.77552    0.77764    0.91811   1.00
C3       0.77754    0.77023    1.08591   1.00
C3       0.73445    0.72087    0.91696   1.00
C3       0.72980    0.71900    1.08336   1.00
H1       0.78951    0.79864    0.97237   1.00
H1       0.79724    0.79021    1.03306   1.00
C5       0.71006    0.68991    0.97835   1.00
C5       0.70622    0.69164    1.01998   1.00
H1       0.79103    0.79937    0.90451   1.00
H1       0.79539    0.78907    1.10091   1.00
H1       0.71981    0.70098    0.90052   1.00
H1       0.71257    0.70015    1.09848   1.00
C6       0.69095    0.65752    0.95515   1.00
C6       0.67739    0.66573    1.04119   1.00
H2       0.71155    0.64675    0.93345   1.00
H2       0.66211    0.68297    1.06310   1.00
H2       0.68618    0.63165    0.97286   1.00
H2       0.65354    0.65680    1.02228   1.00
C6       0.65129    0.67000    0.93606   1.00
C6       0.69666    0.62846    1.05942   1.00
H2       0.65439    0.69890    0.92292   1.00
H2       0.72396    0.63652    1.07383   1.00
C6       0.63333    0.64218    0.90459   1.00
C6       0.67180    0.60422    1.08911   1.00
H2       0.62998    0.67367    0.95949   1.00
H2       0.70518    0.60923    1.03546   1.00
C6       0.65900    0.64026    0.86735   1.00
C6       0.66370    0.62750    1.12708   1.00
C6       0.62734    0.60038    0.92074   1.00
C6       0.63253    0.59097    1.07107   1.00
C6       0.59280    0.65841    0.89245   1.00
C6       0.69516    0.56711    1.10054   1.00
H2       0.66431    0.66940    0.85558   1.00
H2       0.69085    0.63783    1.14020   1.00
H2       0.68719    0.62685    0.87330   1.00
H2       0.64529    0.65280    1.12154   1.00
H2       0.64494    0.62299    0.84459   1.00
H2       0.64873    0.60946    1.14863   1.00
H2       0.61227    0.58198    0.89955   1.00
H2       0.61670    0.57179    1.09098   1.00
H2       0.65524    0.58657    0.92725   1.00
H2       0.61380    0.61594    1.06494   1.00
H2       0.61002    0.60098    0.94745   1.00
H2       0.63737    0.57519    1.04385   1.00
H2       0.59544    0.68780    0.88042   1.00
H2       0.72307    0.57485    1.11383   1.00
H2       0.57916    0.64007    0.87025   1.00
H2       0.67907    0.54930    1.12149   1.00
H2       0.57305    0.65973    0.91739   1.00
H2       0.70112    0.54901    1.07502   1.00
C4       0.74751    0.98025    0.75410   1.00
C4       0.74597    1.02191    0.75424   1.00
C3       0.77672    0.95897    0.77468   1.00
C3       0.77090    1.04504    0.77817   1.00
C3       0.71904    0.95854    0.73266   1.00
C3       0.71859    1.04170    0.72974   1.00
C2       0.74953    0.89595    0.75540   1.00
C2       0.74420    1.10622    0.75314   1.00
C3       0.77764    0.91811    0.77552   1.00
C3       0.77023    1.08591    0.77754   1.00
C3       0.72087    0.91696    0.73445   1.00
C3       0.71900    1.08336    0.72980   1.00
H1       0.79864    0.97237    0.78951   1.00
H1       0.79021    1.03306    0.79724   1.00
C5       0.68991    0.97835    0.71006   1.00
C5       0.69164    1.01998    0.70622   1.00
H1       0.79937    0.90451    0.79103   1.00
H1       0.78907    1.10091    0.79539   1.00
H1       0.70098    0.90052    0.71981   1.00
H1       0.70015    1.09848    0.71257   1.00
C6       0.65752    0.95515    0.69095   1.00
C6       0.66573    1.04119    0.67739   1.00
H2       0.64675    0.93345    0.71155   1.00
H2       0.68297    1.06310    0.66211   1.00
H2       0.63165    0.97286    0.68618   1.00
H2       0.65680    1.02228    0.65354   1.00
C6       0.67000    0.93606    0.65129   1.00
C6       0.62846    1.05942    0.69666   1.00
H2       0.69890    0.92292    0.65439   1.00
H2       0.63652    1.07383    0.72396   1.00
C6       0.64218    0.90459    0.63333   1.00
C6       0.60422    1.08911    0.67180   1.00
H2       0.67367    0.95949    0.62998   1.00
H2       0.60923    1.03546    0.70518   1.00
C6       0.64026    0.86735    0.65900   1.00
C6       0.62750    1.12708    0.66370   1.00
C6       0.60038    0.92074    0.62734   1.00
C6       0.59097    1.07107    0.63253   1.00
C6       0.65841    0.89245    0.59280   1.00
C6       0.56711    1.10054    0.69516   1.00
H2       0.66940    0.85558    0.66431   1.00
H2       0.63783    1.14020    0.69085   1.00
H2       0.62685    0.87330    0.68719   1.00
H2       0.65280    1.12154    0.64529   1.00
H2       0.62299    0.84459    0.64494   1.00
H2       0.60946    1.14863    0.64873   1.00
H2       0.58198    0.89955    0.61227   1.00
H2       0.57179    1.09098    0.61670   1.00
H2       0.58657    0.92725    0.65524   1.00
H2       0.61594    1.06494    0.61380   1.00
H2       0.60098    0.94745    0.61002   1.00
H2       0.57519    1.04385    0.63737   1.00
H2       0.68780    0.88042    0.59544   1.00
H2       0.57485    1.11383    0.72307   1.00
H2       0.64007    0.87025    0.57916   1.00
H2       0.54930    1.12149    0.67907   1.00
H2       0.65973    0.91739    0.57305   1.00
H2       0.54901    1.07502    0.70112   1.00
C4       0.51975    0.75410    0.75249   1.00
C4       0.47809    0.75424    0.75403   1.00
C3       0.54103    0.77468    0.72328   1.00
C3       0.45496    0.77817    0.72910   1.00
C3       0.54146    0.73266    0.78096   1.00
C3       0.45830    0.72974    0.78141   1.00
C2       0.60405    0.75540    0.75047   1.00
C2       0.39378    0.75314    0.75580   1.00
C3       0.58189    0.77552    0.72236   1.00
C3       0.41409    0.77754    0.72977   1.00
C3       0.58304    0.73445    0.77913   1.00
C3       0.41664    0.72980    0.78100   1.00
H1       0.52763    0.78951    0.70136   1.00
H1       0.46694    0.79724    0.70979   1.00
C5       0.52165    0.71006    0.81009   1.00
C5       0.48002    0.70622    0.80836   1.00
H1       0.59549    0.79103    0.70063   1.00
H1       0.39909    0.79539    0.71093   1.00
H1       0.59948    0.71981    0.79902   1.00
H1       0.40152    0.71257    0.79985   1.00
C6       0.54485    0.69095    0.84248   1.00
C6       0.45881    0.67739    0.83427   1.00
H2       0.56655    0.71155    0.85325   1.00
H2       0.43690    0.66211    0.81703   1.00
H2       0.52714    0.68618    0.86835   1.00
H2       0.47772    0.65354    0.84320   1.00
C6       0.56394    0.65129    0.83000   1.00
C6       0.44058    0.69666    0.87154   1.00
H2       0.57708    0.65439    0.80110   1.00
H2       0.42617    0.72396    0.86348   1.00
C6       0.59541    0.63333    0.85782   1.00
C6       0.41089    0.67180    0.89578   1.00
H2       0.54051    0.62998    0.82633   1.00
H2       0.46454    0.70518    0.89077   1.00
C6       0.63265    0.65900    0.85974   1.00
C6       0.37292    0.66370    0.87250   1.00
C6       0.57926    0.62734    0.89962   1.00
C6       0.42893    0.63253    0.90903   1.00
C6       0.60755    0.59280    0.84159   1.00
C6       0.39946    0.69516    0.93289   1.00
H2       0.64442    0.66431    0.83060   1.00
H2       0.35980    0.69085    0.86217   1.00
H2       0.62670    0.68719    0.87315   1.00
H2       0.37846    0.64529    0.84720   1.00
H2       0.65541    0.64494    0.87701   1.00
H2       0.35137    0.64873    0.89054   1.00
H2       0.60045    0.61227    0.91802   1.00
H2       0.40902    0.61670    0.92821   1.00
H2       0.57275    0.65524    0.91343   1.00
H2       0.43506    0.61380    0.88406   1.00
H2       0.55255    0.61002    0.89902   1.00
H2       0.45615    0.63737    0.92481   1.00
H2       0.61958    0.59544    0.81220   1.00
H2       0.38617    0.72307    0.92515   1.00
H2       0.62975    0.57916    0.85993   1.00
H2       0.37851    0.67907    0.95070   1.00
H2       0.58261    0.57305    0.84027   1.00
H2       0.42498    0.70112    0.95099   1.00
C4       0.98025    0.75410    0.74751   1.00
C4       1.02191    0.75424    0.74597   1.00
C3       0.95897    0.77468    0.77672   1.00
C3       1.04504    0.77817    0.77090   1.00
C3       0.95854    0.73266    0.71904   1.00
C3       1.04170    0.72974    0.71859   1.00
C2       0.89595    0.75540    0.74953   1.00
C2       1.10622    0.75314    0.74420   1.00
C3       0.91811    0.77552    0.77764   1.00
C3       1.08591    0.77754    0.77023   1.00
C3       0.91696    0.73445    0.72087   1.00
C3       1.08336    0.72980    0.71900   1.00
H1       0.97237    0.78951    0.79864   1.00
H1       1.03306    0.79724    0.79021   1.00
C5       0.97835    0.71006    0.68991   1.00
C5       1.01998    0.70622    0.69164   1.00
H1       0.90451    0.79103    0.79937   1.00
H1       1.10091    0.79539    0.78907   1.00
H1       0.90052    0.71981    0.70098   1.00
H1       1.09848    0.71257    0.70015   1.00
C6       0.95515    0.69095    0.65752   1.00
C6       1.04119    0.67739    0.66573   1.00
H2       0.93345    0.71155    0.64675   1.00
H2       1.06310    0.66211    0.68297   1.00
H2       0.97286    0.68618    0.63165   1.00
H2       1.02228    0.65354    0.65680   1.00
C6       0.93606    0.65129    0.67000   1.00
C6       1.05942    0.69666    0.62846   1.00
H2       0.92292    0.65439    0.69890   1.00
H2       1.07383    0.72396    0.63652   1.00
C6       0.90459    0.63333    0.64218   1.00
C6       1.08911    0.67180    0.60422   1.00
H2       0.95949    0.62998    0.67367   1.00
H2       1.03546    0.70518    0.60923   1.00
C6       0.86735    0.65900    0.64026   1.00
C6       1.12708    0.66370    0.62750   1.00
C6       0.92074    0.62734    0.60038   1.00
C6       1.07107    0.63253    0.59097   1.00
C6       0.89245    0.59280    0.65841   1.00
C6       1.10054    0.69516    0.56711   1.00
H2       0.85558    0.66431    0.66940   1.00
H2       1.14020    0.69085    0.63783   1.00
H2       0.87330    0.68719    0.62685   1.00
H2       1.12154    0.64529    0.65280   1.00
H2       0.84459    0.64494    0.62299   1.00
H2       1.14863    0.64873    0.60946   1.00
H2       0.89955    0.61227    0.58198   1.00
H2       1.09098    0.61670    0.57179   1.00
H2       0.92725    0.65524    0.58657   1.00
H2       1.06494    0.61380    0.61594   1.00
H2       0.94745    0.61002    0.60098   1.00
H2       1.04385    0.63737    0.57519   1.00
H2       0.88042    0.59544    0.68780   1.00
H2       1.11383    0.72307    0.57485   1.00
H2       0.87025    0.57916    0.64007   1.00
H2       1.12149    0.67907    0.54930   1.00
H2       0.91739    0.57305    0.65973   1.00
H2       1.07502    0.70112    0.54901   1.00
C4       0.75249    0.51975    0.75410   1.00
C4       0.75403    0.47809    0.75424   1.00
C3       0.72328    0.54103    0.77468   1.00
C3       0.72910    0.45496    0.77817   1.00
C3       0.78096    0.54146    0.73266   1.00
C3       0.78141    0.45830    0.72974   1.00
C2       0.75047    0.60405    0.75540   1.00
C2       0.75580    0.39378    0.75314   1.00
C3       0.72236    0.58189    0.77552   1.00
C3       0.72977    0.41409    0.77754   1.00
C3       0.77913    0.58304    0.73445   1.00
C3       0.78100    0.41664    0.72980   1.00
H1       0.70136    0.52763    0.78951   1.00
H1       0.70979    0.46694    0.79724   1.00
C5       0.81009    0.52165    0.71006   1.00
C5       0.80836    0.48002    0.70622   1.00
H1       0.70063    0.59549    0.79103   1.00
H1       0.71093    0.39909    0.79539   1.00
H1       0.79902    0.59948    0.71981   1.00
H1       0.79985    0.40152    0.71257   1.00
C6       0.84248    0.54485    0.69095   1.00
C6       0.83427    0.45881    0.67739   1.00
H2       0.85325    0.56655    0.71155   1.00
H2       0.81703    0.43690    0.66211   1.00
H2       0.86835    0.52714    0.68618   1.00
H2       0.84320    0.47772    0.65354   1.00
C6       0.83000    0.56394    0.65129   1.00
C6       0.87154    0.44058    0.69666   1.00
H2       0.80110    0.57708    0.65439   1.00
H2       0.86348    0.42617    0.72396   1.00
C6       0.85782    0.59541    0.63333   1.00
C6       0.89578    0.41089    0.67180   1.00
H2       0.82633    0.54051    0.62998   1.00
H2       0.89077    0.46454    0.70518   1.00
C6       0.85974    0.63265    0.65900   1.00
C6       0.87250    0.37292    0.66370   1.00
C6       0.89962    0.57926    0.62734   1.00
C6       0.90903    0.42893    0.63253   1.00
C6       0.84159    0.60755    0.59280   1.00
C6       0.93289    0.39946    0.69516   1.00
H2       0.83060    0.64442    0.66431   1.00
H2       0.86217    0.35980    0.69085   1.00
H2       0.87315    0.62670    0.68719   1.00
H2       0.84720    0.37846    0.64529   1.00
H2       0.87701    0.65541    0.64494   1.00
H2       0.89054    0.35137    0.64873   1.00
H2       0.91802    0.60045    0.61227   1.00
H2       0.92821    0.40902    0.61670   1.00
H2       0.91343    0.57275    0.65524   1.00
H2       0.88406    0.43506    0.61380   1.00
H2       0.89902    0.55255    0.61002   1.00
H2       0.92481    0.45615    0.63737   1.00
H2       0.81220    0.61958    0.59544   1.00
H2       0.92515    0.38617    0.72307   1.00
H2       0.85993    0.62975    0.57916   1.00
H2       0.95070    0.37851    0.67907   1.00
H2       0.84027    0.58261    0.57305   1.00
H2       0.95099    0.42498    0.70112   1.00
C4       0.75410    0.75249    0.51975   1.00
C4       0.75424    0.75403    0.47809   1.00
C3       0.77468    0.72328    0.54103   1.00
C3       0.77817    0.72910    0.45496   1.00
C3       0.73266    0.78096    0.54146   1.00
C3       0.72974    0.78141    0.45830   1.00
C2       0.75540    0.75047    0.60405   1.00
C2       0.75314    0.75580    0.39378   1.00
C3       0.77552    0.72236    0.58189   1.00
C3       0.77754    0.72977    0.41409   1.00
C3       0.73445    0.77913    0.58304   1.00
C3       0.72980    0.78100    0.41664   1.00
H1       0.78951    0.70136    0.52763   1.00
H1       0.79724    0.70979    0.46694   1.00
C5       0.71006    0.81009    0.52165   1.00
C5       0.70622    0.80836    0.48002   1.00
H1       0.79103    0.70063    0.59549   1.00
H1       0.79539    0.71093    0.39909   1.00
H1       0.71981    0.79902    0.59948   1.00
H1       0.71257    0.79985    0.40152   1.00
C6       0.69095    0.84248    0.54485   1.00
C6       0.67739    0.83427    0.45881   1.00
H2       0.71155    0.85325    0.56655   1.00
H2       0.66211    0.81703    0.43690   1.00
H2       0.68618    0.86835    0.52714   1.00
H2       0.65354    0.84320    0.47772   1.00
C6       0.65129    0.83000    0.56394   1.00
C6       0.69666    0.87154    0.44058   1.00
H2       0.65439    0.80110    0.57708   1.00
H2       0.72396    0.86348    0.42617   1.00
C6       0.63333    0.85782    0.59541   1.00
C6       0.67180    0.89578    0.41089   1.00
H2       0.62998    0.82633    0.54051   1.00
H2       0.70518    0.89077    0.46454   1.00
C6       0.65900    0.85974    0.63265   1.00
C6       0.66370    0.87250    0.37292   1.00
C6       0.62734    0.89962    0.57926   1.00
C6       0.63253    0.90903    0.42893   1.00
C6       0.59280    0.84159    0.60755   1.00
C6       0.69516    0.93289    0.39946   1.00
H2       0.66431    0.83060    0.64442   1.00
H2       0.69085    0.86217    0.35980   1.00
H2       0.68719    0.87315    0.62670   1.00
H2       0.64529    0.84720    0.37846   1.00
H2       0.64494    0.87701    0.65541   1.00
H2       0.64873    0.89054    0.35137   1.00
H2       0.61227    0.91802    0.60045   1.00
H2       0.61670    0.92821    0.40902   1.00
H2       0.65524    0.91343    0.57275   1.00
H2       0.61380    0.88406    0.43506   1.00
H2       0.61002    0.89902    0.55255   1.00
H2       0.63737    0.92481    0.45615   1.00
H2       0.59544    0.81220    0.61958   1.00
H2       0.72307    0.92515    0.38617   1.00
H2       0.57916    0.85993    0.62975   1.00
H2       0.67907    0.95070    0.37851   1.00
H2       0.57305    0.84027    0.58261   1.00
H2       0.70112    0.95099    0.42498   1.00
C4       0.25410    0.24751    0.98025   1.00
C4       0.25424    0.24597    1.02191   1.00
C3       0.27468    0.27672    0.95897   1.00
C3       0.27817    0.27090    1.04504   1.00
C3       0.23266    0.21904    0.95854   1.00
C3       0.22974    0.21859    1.04170   1.00
C2       0.25540    0.24953    0.89595   1.00
C2       0.25314    0.24420    1.10622   1.00
C3       0.27552    0.27764    0.91811   1.00
C3       0.27754    0.27023    1.08591   1.00
C3       0.23445    0.22087    0.91696   1.00
C3       0.22980    0.21900    1.08336   1.00
H1       0.28951    0.29864    0.97237   1.00
H1       0.29724    0.29021    1.03306   1.00
C5       0.21006    0.18991    0.97835   1.00
C5       0.20622    0.19164    1.01998   1.00
H1       0.29103    0.29937    0.90451   1.00
H1       0.29539    0.28907    1.10091   1.00
H1       0.21981    0.20098    0.90052   1.00
H1       0.21257    0.20015    1.09848   1.00
C6       0.19095    0.15752    0.95515   1.00
C6       0.17739    0.16573    1.04119   1.00
H2       0.21155    0.14675    0.93345   1.00
H2       0.16211    0.18297    1.06310   1.00
H2       0.18618    0.13165    0.97286   1.00
H2       0.15354    0.15680    1.02228   1.00
C6       0.15129    0.17000    0.93606   1.00
C6       0.19666    0.12846    1.05942   1.00
H2       0.15439    0.19890    0.92292   1.00
H2       0.22396    0.13652    1.07383   1.00
C6       0.13333    0.14218    0.90459   1.00
C6       0.17180    0.10422    1.08911   1.00
H2       0.12998    0.17367    0.95949   1.00
H2       0.20518    0.10923    1.03546   1.00
C6       0.15900    0.14026    0.86735   1.00
C6       0.16370    0.12750    1.12708   1.00
C6       0.12734    0.10038    0.92074   1.00
C6       0.13253    0.09097    1.07107   1.00
C6       0.09280    0.15841    0.89245   1.00
C6       0.19516    0.06711    1.10054   1.00
H2       0.16431    0.16940    0.85558   1.00
H2       0.19085    0.13783    1.14020   1.00
H2       0.18719    0.12685    0.87330   1.00
H2       0.14529    0.15280    1.12154   1.00
H2       0.14494    0.12299    0.84459   1.00
H2       0.14873    0.10946    1.14863   1.00
H2       0.11227    0.08198    0.89955   1.00
H2       0.11670    0.07179    1.09098   1.00
H2       0.15524    0.08657    0.92725   1.00
H2       0.11380    0.11594    1.06494   1.00
H2       0.11002    0.10098    0.94745   1.00
H2       0.13737    0.07519    1.04385   1.00
H2       0.09544    0.18780    0.88042   1.00
H2       0.22307    0.07485    1.11383   1.00
H2       0.07916    0.14007    0.87025   1.00
H2       0.17907    0.04930    1.12149   1.00
H2       0.07305    0.15973    0.91739   1.00
H2       0.20112    0.04901    1.07502   1.00
C4       0.24751    0.48025    0.75410   1.00
C4       0.24597    0.52191    0.75424   1.00
C3       0.27672    0.45897    0.77468   1.00
C3       0.27090    0.54504    0.77817   1.00
C3       0.21904    0.45854    0.73266   1.00
C3       0.21859    0.54170    0.72974   1.00
C2       0.24953    0.39595    0.75540   1.00
C2       0.24420    0.60622    0.75314   1.00
C3       0.27764    0.41811    0.77552   1.00
C3       0.27023    0.58591    0.77754   1.00
C3       0.22087    0.41696    0.73445   1.00
C3       0.21900    0.58336    0.72980   1.00
H1       0.29864    0.47237    0.78951   1.00
H1       0.29021    0.53306    0.79724   1.00
C5       0.18991    0.47835    0.71006   1.00
C5       0.19164    0.51998    0.70622   1.00
H1       0.29937    0.40451    0.79103   1.00
H1       0.28907    0.60091    0.79539   1.00
H1       0.20098    0.40052    0.71981   1.00
H1       0.20015    0.59848    0.71257   1.00
C6       0.15752    0.45515    0.69095   1.00
C6       0.16573    0.54119    0.67739   1.00
H2       0.14675    0.43345    0.71155   1.00
H2       0.18297    0.56310    0.66211   1.00
H2       0.13165    0.47286    0.68618   1.00
H2       0.15680    0.52228    0.65354   1.00
C6       0.17000    0.43606    0.65129   1.00
C6       0.12846    0.55942    0.69666   1.00
H2       0.19890    0.42292    0.65439   1.00
H2       0.13652    0.57383    0.72396   1.00
C6       0.14218    0.40459    0.63333   1.00
C6       0.10422    0.58911    0.67180   1.00
H2       0.17367    0.45949    0.62998   1.00
H2       0.10923    0.53546    0.70518   1.00
C6       0.14026    0.36735    0.65900   1.00
C6       0.12750    0.62708    0.66370   1.00
C6       0.10038    0.42074    0.62734   1.00
C6       0.09097    0.57107    0.63253   1.00
C6       0.15841    0.39245    0.59280   1.00
C6       0.06711    0.60054    0.69516   1.00
H2       0.16940    0.35558    0.66431   1.00
H2       0.13783    0.64020    0.69085   1.00
H2       0.12685    0.37330    0.68719   1.00
H2       0.15280    0.62154    0.64529   1.00
H2       0.12299    0.34459    0.64494   1.00
H2       0.10946    0.64863    0.64873   1.00
H2       0.08198    0.39955    0.61227   1.00
H2       0.07179    0.59098    0.61670   1.00
H2       0.08657    0.42725    0.65524   1.00
H2       0.11594    0.56494    0.61380   1.00
H2       0.10098    0.44745    0.61002   1.00
H2       0.07519    0.54385    0.63737   1.00
H2       0.18780    0.38042    0.59544   1.00
H2       0.07485    0.61383    0.72307   1.00
H2       0.14007    0.37025    0.57916   1.00
H2       0.04930    0.62149    0.67907   1.00
H2       0.15973    0.41739    0.57305   1.00
H2       0.04901    0.57502    0.70112   1.00
C4       0.01975    0.25410    0.75249   1.00
C4       -0.02191   0.25424    0.75403   1.00
C3       0.04103    0.27468    0.72328   1.00
C3       -0.04504   0.27817    0.72910   1.00
C3       0.04146    0.23266    0.78096   1.00
C3       -0.04170   0.22974    0.78141   1.00
C2       0.10405    0.25540    0.75047   1.00
C2       -0.10622   0.25314    0.75580   1.00
C3       0.08189    0.27552    0.72236   1.00
C3       -0.08591   0.27754    0.72977   1.00
C3       0.08304    0.23445    0.77913   1.00
C3       -0.08336   0.22980    0.78100   1.00
H1       0.02763    0.28951    0.70136   1.00
H1       -0.03306   0.29724    0.70979   1.00
C5       0.02165    0.21006    0.81009   1.00
C5       -0.01998   0.20622    0.80836   1.00
H1       0.09549    0.29103    0.70063   1.00
H1       -0.10091   0.29539    0.71093   1.00
H1       0.09948    0.21981    0.79902   1.00
H1       -0.09848   0.21257    0.79985   1.00
C6       0.04485    0.19095    0.84248   1.00
C6       -0.04119   0.17739    0.83427   1.00
H2       0.06655    0.21155    0.85325   1.00
H2       -0.06310   0.16211    0.81703   1.00
H2       0.02714    0.18618    0.86835   1.00
H2       -0.02228   0.15354    0.84320   1.00
C6       0.06394    0.15129    0.83000   1.00
C6       -0.05942   0.19666    0.87154   1.00
H2       0.07708    0.15439    0.80110   1.00
H2       -0.07383   0.22396    0.86348   1.00
C6       0.09541    0.13333    0.85782   1.00
C6       -0.08911   0.17180    0.89578   1.00
H2       0.04051    0.12998    0.82633   1.00
H2       -0.03546   0.20518    0.89077   1.00
C6       0.13265    0.15900    0.85974   1.00
C6       -0.12708   0.16370    0.87250   1.00
C6       0.07926    0.12734    0.89962   1.00
C6       -0.07107   0.13253    0.90903   1.00
C6       0.10755    0.09280    0.84159   1.00
C6       -0.10054   0.19516    0.93289   1.00
H2       0.14442    0.16431    0.83060   1.00
H2       -0.14020   0.19085    0.86217   1.00
H2       0.12670    0.18719    0.87315   1.00
H2       -0.12154   0.14529    0.84720   1.00
H2       0.15541    0.14494    0.87701   1.00
H2       -0.14863   0.14873    0.89054   1.00
H2       0.10045    0.11227    0.91802   1.00
H2       -0.09098   0.11670    0.92821   1.00
H2       0.07275    0.15524    0.91343   1.00
H2       -0.06494   0.11380    0.88406   1.00
H2       0.05255    0.11002    0.89902   1.00
H2       -0.04385   0.13737    0.92481   1.00
H2       0.11958    0.09544    0.81220   1.00
H2       -0.11383   0.22307    0.92515   1.00
H2       0.12975    0.07916    0.85993   1.00
H2       -0.12149   0.17907    0.95070   1.00
H2       0.08261    0.07305    0.84027   1.00
H2       -0.07502   0.20112    0.95099   1.00
C4       0.48025    0.25410    0.74751   1.00
C4       0.52191    0.25424    0.74597   1.00
C3       0.45897    0.27468    0.77672   1.00
C3       0.54504    0.27817    0.77090   1.00
C3       0.45854    0.23266    0.71904   1.00
C3       0.54170    0.22974    0.71859   1.00
C2       0.39595    0.25540    0.74953   1.00
C2       0.60622    0.25314    0.74420   1.00
C3       0.41811    0.27552    0.77764   1.00
C3       0.58591    0.27754    0.77023   1.00
C3       0.41696    0.23445    0.72087   1.00
C3       0.58336    0.22980    0.71900   1.00
H1       0.47237    0.28951    0.79864   1.00
H1       0.53306    0.29724    0.79021   1.00
C5       0.47835    0.21006    0.68991   1.00
C5       0.51998    0.20622    0.69164   1.00
H1       0.40451    0.29103    0.79937   1.00
H1       0.60091    0.29539    0.78907   1.00
H1       0.40052    0.21981    0.70098   1.00
H1       0.59848    0.21257    0.70015   1.00
C6       0.45515    0.19095    0.65752   1.00
C6       0.54119    0.17739    0.66573   1.00
H2       0.43345    0.21155    0.64675   1.00
H2       0.56310    0.16211    0.68297   1.00
H2       0.47286    0.18618    0.63165   1.00
H2       0.52228    0.15354    0.65680   1.00
C6       0.43606    0.15129    0.67000   1.00
C6       0.55942    0.19666    0.62846   1.00
H2       0.42292    0.15439    0.69890   1.00
H2       0.57383    0.22396    0.63652   1.00
C6       0.40459    0.13333    0.64218   1.00
C6       0.58911    0.17180    0.60422   1.00
H2       0.45949    0.12998    0.67367   1.00
H2       0.53546    0.20518    0.60923   1.00
C6       0.36735    0.15900    0.64026   1.00
C6       0.62708    0.16370    0.62750   1.00
C6       0.42074    0.12734    0.60038   1.00
C6       0.57107    0.13253    0.59097   1.00
C6       0.39245    0.09280    0.65841   1.00
C6       0.60054    0.19516    0.56711   1.00
H2       0.35558    0.16431    0.66940   1.00
H2       0.64020    0.19085    0.63783   1.00
H2       0.37330    0.18719    0.62685   1.00
H2       0.62154    0.14529    0.65280   1.00
H2       0.34459    0.14494    0.62299   1.00
H2       0.64863    0.14873    0.60946   1.00
H2       0.39955    0.11227    0.58198   1.00
H2       0.59098    0.11670    0.57179   1.00
H2       0.42725    0.15524    0.58657   1.00
H2       0.56494    0.11380    0.61594   1.00
H2       0.44745    0.11002    0.60098   1.00
H2       0.54385    0.13737    0.57519   1.00
H2       0.38042    0.09544    0.68780   1.00
H2       0.61383    0.22307    0.57485   1.00
H2       0.37025    0.07916    0.64007   1.00
H2       0.62149    0.17907    0.54930   1.00
H2       0.41739    0.07305    0.65973   1.00
H2       0.57502    0.20112    0.54901   1.00
C4       0.25249    0.01975    0.75410   1.00
C4       0.25403    -0.02191   0.75424   1.00
C3       0.22328    0.04103    0.77468   1.00
C3       0.22910    -0.04504   0.77817   1.00
C3       0.28096    0.04146    0.73266   1.00
C3       0.28141    -0.04170   0.72974   1.00
C2       0.25047    0.10405    0.75540   1.00
C2       0.25580    -0.10622   0.75314   1.00
C3       0.22236    0.08189    0.77552   1.00
C3       0.22977    -0.08591   0.77754   1.00
C3       0.27913    0.08304    0.73445   1.00
C3       0.28100    -0.08336   0.72980   1.00
H1       0.20136    0.02763    0.78951   1.00
H1       0.20979    -0.03306   0.79724   1.00
C5       0.31009    0.02165    0.71006   1.00
C5       0.30836    -0.01998   0.70622   1.00
H1       0.20063    0.09549    0.79103   1.00
H1       0.21093    -0.10091   0.79539   1.00
H1       0.29902    0.09948    0.71981   1.00
H1       0.29985    -0.09848   0.71257   1.00
C6       0.34248    0.04485    0.69095   1.00
C6       0.33427    -0.04119   0.67739   1.00
H2       0.35325    0.06655    0.71155   1.00
H2       0.31703    -0.06310   0.66211   1.00
H2       0.36835    0.02714    0.68618   1.00
H2       0.34320    -0.02228   0.65354   1.00
C6       0.33000    0.06394    0.65129   1.00
C6       0.37154    -0.05942   0.69666   1.00
H2       0.30110    0.07708    0.65439   1.00
H2       0.36348    -0.07383   0.72396   1.00
C6       0.35782    0.09541    0.63333   1.00
C6       0.39578    -0.08911   0.67180   1.00
H2       0.32633    0.04051    0.62998   1.00
H2       0.39077    -0.03546   0.70518   1.00
C6       0.35974    0.13265    0.65900   1.00
C6       0.37250    -0.12708   0.66370   1.00
C6       0.39962    0.07926    0.62734   1.00
C6       0.40903    -0.07107   0.63253   1.00
C6       0.34159    0.10755    0.59280   1.00
C6       0.43289    -0.10054   0.69516   1.00
H2       0.33060    0.14442    0.66431   1.00
H2       0.36217    -0.14020   0.69085   1.00
H2       0.37315    0.12670    0.68719   1.00
H2       0.34720    -0.12154   0.64529   1.00
H2       0.37701    0.15541    0.64494   1.00
H2       0.39054    -0.14863   0.64873   1.00
H2       0.41802    0.10045    0.61227   1.00
H2       0.42821    -0.09098   0.61670   1.00
H2       0.41343    0.07275    0.65524   1.00
H2       0.38406    -0.06494   0.61380   1.00
H2       0.39902    0.05255    0.61002   1.00
H2       0.42481    -0.04385   0.63737   1.00
H2       0.31220    0.11958    0.59544   1.00
H2       0.42515    -0.11383   0.72307   1.00
H2       0.35993    0.12975    0.57916   1.00
H2       0.45070    -0.12149   0.67907   1.00
H2       0.34027    0.08261    0.57305   1.00
H2       0.45099    -0.07502   0.70112   1.00
C4       0.25410    0.25249    0.51975   1.00
C4       0.25424    0.25403    0.47809   1.00
C3       0.27468    0.22328    0.54103   1.00
C3       0.27817    0.22910    0.45496   1.00
C3       0.23266    0.28096    0.54146   1.00
C3       0.22974    0.28141    0.45830   1.00
C2       0.25540    0.25047    0.60405   1.00
C2       0.25314    0.25580    0.39378   1.00
C3       0.27552    0.22236    0.58189   1.00
C3       0.27754    0.22977    0.41409   1.00
C3       0.23445    0.27913    0.58304   1.00
C3       0.22980    0.28100    0.41664   1.00
H1       0.28951    0.20136    0.52763   1.00
H1       0.29724    0.20979    0.46694   1.00
C5       0.21006    0.31009    0.52165   1.00
C5       0.20622    0.30836    0.48002   1.00
H1       0.29103    0.20063    0.59549   1.00
H1       0.29539    0.21093    0.39909   1.00
H1       0.21981    0.29902    0.59948   1.00
H1       0.21257    0.29985    0.40152   1.00
C6       0.19095    0.34248    0.54485   1.00
C6       0.17739    0.33427    0.45881   1.00
H2       0.21155    0.35325    0.56655   1.00
H2       0.16211    0.31703    0.43690   1.00
H2       0.18618    0.36835    0.52714   1.00
H2       0.15354    0.34320    0.47772   1.00
C6       0.15129    0.33000    0.56394   1.00
C6       0.19666    0.37154    0.44058   1.00
H2       0.15439    0.30110    0.57708   1.00
H2       0.22396    0.36348    0.42617   1.00
C6       0.13333    0.35782    0.59541   1.00
C6       0.17180    0.39578    0.41089   1.00
H2       0.12998    0.32633    0.54051   1.00
H2       0.20518    0.39077    0.46454   1.00
C6       0.15900    0.35974    0.63265   1.00
C6       0.16370    0.37250    0.37292   1.00
C6       0.12734    0.39962    0.57926   1.00
C6       0.13253    0.40903    0.42893   1.00
C6       0.09280    0.34159    0.60755   1.00
C6       0.19516    0.43289    0.39946   1.00
H2       0.16431    0.33060    0.64442   1.00
H2       0.19085    0.36217    0.35980   1.00
H2       0.18719    0.37315    0.62670   1.00
H2       0.14529    0.34720    0.37846   1.00
H2       0.14494    0.37701    0.65541   1.00
H2       0.14873    0.39054    0.35137   1.00
H2       0.11227    0.41802    0.60045   1.00
H2       0.11670    0.42821    0.40902   1.00
H2       0.15524    0.41343    0.57275   1.00
H2       0.11380    0.38406    0.43506   1.00
H2       0.11002    0.39902    0.55255   1.00
H2       0.13737    0.42481    0.45615   1.00
H2       0.09544    0.31220    0.61958   1.00
H2       0.22307    0.42515    0.38617   1.00
H2       0.07916    0.35993    0.62975   1.00
H2       0.17907    0.45070    0.37851   1.00
H2       0.07305    0.34027    0.58261   1.00
H2       0.20112    0.45099    0.42498   1.00
C4       0.25410    0.74751    0.48025   1.00
C4       0.25424    0.74597    0.52191   1.00
C3       0.27468    0.77672    0.45897   1.00
C3       0.27817    0.77090    0.54504   1.00
C3       0.23266    0.71904    0.45854   1.00
C3       0.22974    0.71859    0.54170   1.00
C2       0.25540    0.74953    0.39595   1.00
C2       0.25314    0.74420    0.60622   1.00
C3       0.27552    0.77764    0.41811   1.00
C3       0.27754    0.77023    0.58591   1.00
C3       0.23445    0.72087    0.41696   1.00
C3       0.22980    0.71900    0.58336   1.00
H1       0.28951    0.79864    0.47237   1.00
H1       0.29724    0.79021    0.53306   1.00
C5       0.21006    0.68991    0.47835   1.00
C5       0.20622    0.69164    0.51998   1.00
H1       0.29103    0.79937    0.40451   1.00
H1       0.29539    0.78907    0.60091   1.00
H1       0.21981    0.70098    0.40052   1.00
H1       0.21257    0.70015    0.59848   1.00
C6       0.19095    0.65752    0.45515   1.00
C6       0.17739    0.66573    0.54119   1.00
H2       0.21155    0.64675    0.43345   1.00
H2       0.16211    0.68297    0.56310   1.00
H2       0.18618    0.63165    0.47286   1.00
H2       0.15354    0.65680    0.52228   1.00
C6       0.15129    0.67000    0.43606   1.00
C6       0.19666    0.62846    0.55942   1.00
H2       0.15439    0.69890    0.42292   1.00
H2       0.22396    0.63652    0.57383   1.00
C6       0.13333    0.64218    0.40459   1.00
C6       0.17180    0.60422    0.58911   1.00
H2       0.12998    0.67367    0.45949   1.00
H2       0.20518    0.60923    0.53546   1.00
C6       0.15900    0.64026    0.36735   1.00
C6       0.16370    0.62750    0.62708   1.00
C6       0.12734    0.60038    0.42074   1.00
C6       0.13253    0.59097    0.57107   1.00
C6       0.09280    0.65841    0.39245   1.00
C6       0.19516    0.56711    0.60054   1.00
H2       0.16431    0.66940    0.35558   1.00
H2       0.19085    0.63783    0.64020   1.00
H2       0.18719    0.62685    0.37330   1.00
H2       0.14529    0.65280    0.62154   1.00
H2       0.14494    0.62299    0.34459   1.00
H2       0.14873    0.60946    0.64863   1.00
H2       0.11227    0.58198    0.39955   1.00
H2       0.11670    0.57179    0.59098   1.00
H2       0.15524    0.58657    0.42725   1.00
H2       0.11380    0.61594    0.56494   1.00
H2       0.11002    0.60098    0.44745   1.00
H2       0.13737    0.57519    0.54385   1.00
H2       0.09544    0.68780    0.38042   1.00
H2       0.22307    0.57485    0.61383   1.00
H2       0.07916    0.64007    0.37025   1.00
H2       0.17907    0.54930    0.62149   1.00
H2       0.07305    0.65973    0.41739   1.00
H2       0.20112    0.54901    0.57502   1.00
C4       0.24751    0.98025    0.25410   1.00
C4       0.24597    1.02191    0.25424   1.00
C3       0.27672    0.95897    0.27468   1.00
C3       0.27090    1.04504    0.27817   1.00
C3       0.21904    0.95854    0.23266   1.00
C3       0.21859    1.04170    0.22974   1.00
C2       0.24953    0.89595    0.25540   1.00
C2       0.24420    1.10622    0.25314   1.00
C3       0.27764    0.91811    0.27552   1.00
C3       0.27023    1.08591    0.27754   1.00
C3       0.22087    0.91696    0.23445   1.00
C3       0.21900    1.08336    0.22980   1.00
H1       0.29864    0.97237    0.28951   1.00
H1       0.29021    1.03306    0.29724   1.00
C5       0.18991    0.97835    0.21006   1.00
C5       0.19164    1.01998    0.20622   1.00
H1       0.29937    0.90451    0.29103   1.00
H1       0.28907    1.10091    0.29539   1.00
H1       0.20098    0.90052    0.21981   1.00
H1       0.20015    1.09848    0.21257   1.00
C6       0.15752    0.95515    0.19095   1.00
C6       0.16573    1.04119    0.17739   1.00
H2       0.14675    0.93345    0.21155   1.00
H2       0.18297    1.06310    0.16211   1.00
H2       0.13165    0.97286    0.18618   1.00
H2       0.15680    1.02228    0.15354   1.00
C6       0.17000    0.93606    0.15129   1.00
C6       0.12846    1.05942    0.19666   1.00
H2       0.19890    0.92292    0.15439   1.00
H2       0.13652    1.07383    0.22396   1.00
C6       0.14218    0.90459    0.13333   1.00
C6       0.10422    1.08911    0.17180   1.00
H2       0.17367    0.95949    0.12998   1.00
H2       0.10923    1.03546    0.20518   1.00
C6       0.14026    0.86735    0.15900   1.00
C6       0.12750    1.12708    0.16370   1.00
C6       0.10038    0.92074    0.12734   1.00
C6       0.09097    1.07107    0.13253   1.00
C6       0.15841    0.89245    0.09280   1.00
C6       0.06711    1.10054    0.19516   1.00
H2       0.16940    0.85558    0.16431   1.00
H2       0.13783    1.14020    0.19085   1.00
H2       0.12685    0.87330    0.18719   1.00
H2       0.15280    1.12154    0.14529   1.00
H2       0.12299    0.84459    0.14494   1.00
H2       0.10946    1.14863    0.14873   1.00
H2       0.08198    0.89955    0.11227   1.00
H2       0.07179    1.09098    0.11670   1.00
H2       0.08657    0.92725    0.15524   1.00
H2       0.11594    1.06494    0.11380   1.00
H2       0.10098    0.94745    0.11002   1.00
H2       0.07519    1.04385    0.13737   1.00
H2       0.18780    0.88042    0.09544   1.00
H2       0.07485    1.11383    0.22307   1.00
H2       0.14007    0.87025    0.07916   1.00
H2       0.04930    1.12149    0.17907   1.00
H2       0.15973    0.91739    0.07305   1.00
H2       0.04901    1.07502    0.20112   1.00
C4       0.01975    0.75410    0.25249   1.00
C4       -0.02191   0.75424    0.25403   1.00
C3       0.04103    0.77468    0.22328   1.00
C3       -0.04504   0.77817    0.22910   1.00
C3       0.04146    0.73266    0.28096   1.00
C3       -0.04170   0.72974    0.28141   1.00
C2       0.10405    0.75540    0.25047   1.00
C2       -0.10622   0.75314    0.25580   1.00
C3       0.08189    0.77552    0.22236   1.00
C3       -0.08591   0.77754    0.22977   1.00
C3       0.08304    0.73445    0.27913   1.00
C3       -0.08336   0.72980    0.28100   1.00
H1       0.02763    0.78951    0.20136   1.00
H1       -0.03306   0.79724    0.20979   1.00
C5       0.02165    0.71006    0.31009   1.00
C5       -0.01998   0.70622    0.30836   1.00
H1       0.09549    0.79103    0.20063   1.00
H1       -0.10091   0.79539    0.21093   1.00
H1       0.09948    0.71981    0.29902   1.00
H1       -0.09848   0.71257    0.29985   1.00
C6       0.04485    0.69095    0.34248   1.00
C6       -0.04119   0.67739    0.33427   1.00
H2       0.06655    0.71155    0.35325   1.00
H2       -0.06310   0.66211    0.31703   1.00
H2       0.02714    0.68618    0.36835   1.00
H2       -0.02228   0.65354    0.34320   1.00
C6       0.06394    0.65129    0.33000   1.00
C6       -0.05942   0.69666    0.37154   1.00
H2       0.07708    0.65439    0.30110   1.00
H2       -0.07383   0.72396    0.36348   1.00
C6       0.09541    0.63333    0.35782   1.00
C6       -0.08911   0.67180    0.39578   1.00
H2       0.04051    0.62998    0.32633   1.00
H2       -0.03546   0.70518    0.39077   1.00
C6       0.13265    0.65900    0.35974   1.00
C6       -0.12708   0.66370    0.37250   1.00
C6       0.07926    0.62734    0.39962   1.00
C6       -0.07107   0.63253    0.40903   1.00
C6       0.10755    0.59280    0.34159   1.00
C6       -0.10054   0.69516    0.43289   1.00
H2       0.14442    0.66431    0.33060   1.00
H2       -0.14020   0.69085    0.36217   1.00
H2       0.12670    0.68719    0.37315   1.00
H2       -0.12154   0.64529    0.34720   1.00
H2       0.15541    0.64494    0.37701   1.00
H2       -0.14863   0.64873    0.39054   1.00
H2       0.10045    0.61227    0.41802   1.00
H2       -0.09098   0.61670    0.42821   1.00
H2       0.07275    0.65524    0.41343   1.00
H2       -0.06494   0.61380    0.38406   1.00
H2       0.05255    0.61002    0.39902   1.00
H2       -0.04385   0.63737    0.42481   1.00
H2       0.11958    0.59544    0.31220   1.00
H2       -0.11383   0.72307    0.42515   1.00
H2       0.12975    0.57916    0.35993   1.00
H2       -0.12149   0.67907    0.45070   1.00
H2       0.08261    0.57305    0.34027   1.00
H2       -0.07502   0.70112    0.45099   1.00
C4       0.48025    0.75410    0.24751   1.00
C4       0.52191    0.75424    0.24597   1.00
C3       0.45897    0.77468    0.27672   1.00
C3       0.54504    0.77817    0.27090   1.00
C3       0.45854    0.73266    0.21904   1.00
C3       0.54170    0.72974    0.21859   1.00
C2       0.39595    0.75540    0.24953   1.00
C2       0.60622    0.75314    0.24420   1.00
C3       0.41811    0.77552    0.27764   1.00
C3       0.58591    0.77754    0.27023   1.00
C3       0.41696    0.73445    0.22087   1.00
C3       0.58336    0.72980    0.21900   1.00
H1       0.47237    0.78951    0.29864   1.00
H1       0.53306    0.79724    0.29021   1.00
C5       0.47835    0.71006    0.18991   1.00
C5       0.51998    0.70622    0.19164   1.00
H1       0.40451    0.79103    0.29937   1.00
H1       0.60091    0.79539    0.28907   1.00
H1       0.40052    0.71981    0.20098   1.00
H1       0.59848    0.71257    0.20015   1.00
C6       0.45515    0.69095    0.15752   1.00
C6       0.54119    0.67739    0.16573   1.00
H2       0.43345    0.71155    0.14675   1.00
H2       0.56310    0.66211    0.18297   1.00
H2       0.47286    0.68618    0.13165   1.00
H2       0.52228    0.65354    0.15680   1.00
C6       0.43606    0.65129    0.17000   1.00
C6       0.55942    0.69666    0.12846   1.00
H2       0.42292    0.65439    0.19890   1.00
H2       0.57383    0.72396    0.13652   1.00
C6       0.40459    0.63333    0.14218   1.00
C6       0.58911    0.67180    0.10422   1.00
H2       0.45949    0.62998    0.17367   1.00
H2       0.53546    0.70518    0.10923   1.00
C6       0.36735    0.65900    0.14026   1.00
C6       0.62708    0.66370    0.12750   1.00
C6       0.42074    0.62734    0.10038   1.00
C6       0.57107    0.63253    0.09097   1.00
C6       0.39245    0.59280    0.15841   1.00
C6       0.60054    0.69516    0.06711   1.00
H2       0.35558    0.66431    0.16940   1.00
H2       0.64020    0.69085    0.13783   1.00
H2       0.37330    0.68719    0.12685   1.00
H2       0.62154    0.64529    0.15280   1.00
H2       0.34459    0.64494    0.12299   1.00
H2       0.64863    0.64873    0.10946   1.00
H2       0.39955    0.61227    0.08198   1.00
H2       0.59098    0.61670    0.07179   1.00
H2       0.42725    0.65524    0.08657   1.00
H2       0.56494    0.61380    0.11594   1.00
H2       0.44745    0.61002    0.10098   1.00
H2       0.54385    0.63737    0.07519   1.00
H2       0.38042    0.59544    0.18780   1.00
H2       0.61383    0.72307    0.07485   1.00
H2       0.37025    0.57916    0.14007   1.00
H2       0.62149    0.67907    0.04930   1.00
H2       0.41739    0.57305    0.15973   1.00
H2       0.57502    0.70112    0.04901   1.00
C4       0.25249    0.51975    0.25410   1.00
C4       0.25403    0.47809    0.25424   1.00
C3       0.22328    0.54103    0.27468   1.00
C3       0.22910    0.45496    0.27817   1.00
C3       0.28096    0.54146    0.23266   1.00
C3       0.28141    0.45830    0.22974   1.00
C2       0.25047    0.60405    0.25540   1.00
C2       0.25580    0.39378    0.25314   1.00
C3       0.22236    0.58189    0.27552   1.00
C3       0.22977    0.41409    0.27754   1.00
C3       0.27913    0.58304    0.23445   1.00
C3       0.28100    0.41664    0.22980   1.00
H1       0.20136    0.52763    0.28951   1.00
H1       0.20979    0.46694    0.29724   1.00
C5       0.31009    0.52165    0.21006   1.00
C5       0.30836    0.48002    0.20622   1.00
H1       0.20063    0.59549    0.29103   1.00
H1       0.21093    0.39909    0.29539   1.00
H1       0.29902    0.59948    0.21981   1.00
H1       0.29985    0.40152    0.21257   1.00
C6       0.34248    0.54485    0.19095   1.00
C6       0.33427    0.45881    0.17739   1.00
H2       0.35325    0.56655    0.21155   1.00
H2       0.31703    0.43690    0.16211   1.00
H2       0.36835    0.52714    0.18618   1.00
H2       0.34320    0.47772    0.15354   1.00
C6       0.33000    0.56394    0.15129   1.00
C6       0.37154    0.44058    0.19666   1.00
H2       0.30110    0.57708    0.15439   1.00
H2       0.36348    0.42617    0.22396   1.00
C6       0.35782    0.59541    0.13333   1.00
C6       0.39578    0.41089    0.17180   1.00
H2       0.32633    0.54051    0.12998   1.00
H2       0.39077    0.46454    0.20518   1.00
C6       0.35974    0.63265    0.15900   1.00
C6       0.37250    0.37292    0.16370   1.00
C6       0.39962    0.57926    0.12734   1.00
C6       0.40903    0.42893    0.13253   1.00
C6       0.34159    0.60755    0.09280   1.00
C6       0.43289    0.39946    0.19516   1.00
H2       0.33060    0.64442    0.16431   1.00
H2       0.36217    0.35980    0.19085   1.00
H2       0.37315    0.62670    0.18719   1.00
H2       0.34720    0.37846    0.14529   1.00
H2       0.37701    0.65541    0.14494   1.00
H2       0.39054    0.35137    0.14873   1.00
H2       0.41802    0.60045    0.11227   1.00
H2       0.42821    0.40902    0.11670   1.00
H2       0.41343    0.57275    0.15524   1.00
H2       0.38406    0.43506    0.11380   1.00
H2       0.39902    0.55255    0.11002   1.00
H2       0.42481    0.45615    0.13737   1.00
H2       0.31220    0.61958    0.09544   1.00
H2       0.42515    0.38617    0.22307   1.00
H2       0.35993    0.62975    0.07916   1.00
H2       0.45070    0.37851    0.17907   1.00
H2       0.34027    0.58261    0.07305   1.00
H2       0.45099    0.42498    0.20112   1.00
C4       0.25410    0.75249    0.01975   1.00
C4       0.25424    0.75403    -0.02191   1.00
C3       0.27468    0.72328    0.04103   1.00
C3       0.27817    0.72910    -0.04504   1.00
C3       0.23266    0.78096    0.04146   1.00
C3       0.22974    0.78141    -0.04170   1.00
C2       0.25540    0.75047    0.10405   1.00
C2       0.25314    0.75580    -0.10622   1.00
C3       0.27552    0.72236    0.08189   1.00
C3       0.27754    0.72977    -0.08591   1.00
C3       0.23445    0.77913    0.08304   1.00
C3       0.22980    0.78100    -0.08336   1.00
H1       0.28951    0.70136    0.02763   1.00
H1       0.29724    0.70979    -0.03306   1.00
C5       0.21006    0.81009    0.02165   1.00
C5       0.20622    0.80836    -0.01998   1.00
H1       0.29103    0.70063    0.09549   1.00
H1       0.29539    0.71093    -0.10091   1.00
H1       0.21981    0.79902    0.09948   1.00
H1       0.21257    0.79985    -0.09848   1.00
C6       0.19095    0.84248    0.04485   1.00
C6       0.17739    0.83427    -0.04119   1.00
H2       0.21155    0.85325    0.06655   1.00
H2       0.16211    0.81703    -0.06310   1.00
H2       0.18618    0.86835    0.02714   1.00
H2       0.15354    0.84320    -0.02228   1.00
C6       0.15129    0.83000    0.06394   1.00
C6       0.19666    0.87154    -0.05942   1.00
H2       0.15439    0.80110    0.07708   1.00
H2       0.22396    0.86348    -0.07383   1.00
C6       0.13333    0.85782    0.09541   1.00
C6       0.17180    0.89578    -0.08911   1.00
H2       0.12998    0.82633    0.04051   1.00
H2       0.20518    0.89077    -0.03546   1.00
C6       0.15900    0.85974    0.13265   1.00
C6       0.16370    0.87250    -0.12708   1.00
C6       0.12734    0.89962    0.07926   1.00
C6       0.13253    0.90903    -0.07107   1.00
C6       0.09280    0.84159    0.10755   1.00
C6       0.19516    0.93289    -0.10054   1.00
H2       0.16431    0.83060    0.14442   1.00
H2       0.19085    0.86217    -0.14020   1.00
H2       0.18719    0.87315    0.12670   1.00
H2       0.14529    0.84720    -0.12154   1.00
H2       0.14494    0.87701    0.15541   1.00
H2       0.14873    0.89054    -0.14863   1.00
H2       0.11227    0.91802    0.10045   1.00
H2       0.11670    0.92821    -0.09098   1.00
H2       0.15524    0.91343    0.07275   1.00
H2       0.11380    0.88406    -0.06494   1.00
H2       0.11002    0.89902    0.05255   1.00
H2       0.13737    0.92481    -0.04385   1.00
H2       0.09544    0.81220    0.11958   1.00
H2       0.22307    0.92515    -0.11383   1.00
H2       0.07916    0.85993    0.12975   1.00
H2       0.17907    0.95070    -0.12149   1.00
H2       0.07305    0.84027    0.08261   1.00
H2       0.20112    0.95099    -0.07502   1.00
C4       0.75410    0.24751    0.48025   1.00
C4       0.75424    0.24597    0.52191   1.00
C3       0.77468    0.27672    0.45897   1.00
C3       0.77817    0.27090    0.54504   1.00
C3       0.73266    0.21904    0.45854   1.00
C3       0.72974    0.21859    0.54170   1.00
C2       0.75540    0.24953    0.39595   1.00
C2       0.75314    0.24420    0.60622   1.00
C3       0.77552    0.27764    0.41811   1.00
C3       0.77754    0.27023    0.58591   1.00
C3       0.73445    0.22087    0.41696   1.00
C3       0.72980    0.21900    0.58336   1.00
H1       0.78951    0.29864    0.47237   1.00
H1       0.79724    0.29021    0.53306   1.00
C5       0.71006    0.18991    0.47835   1.00
C5       0.70622    0.19164    0.51998   1.00
H1       0.79103    0.29937    0.40451   1.00
H1       0.79539    0.28907    0.60091   1.00
H1       0.71981    0.20098    0.40052   1.00
H1       0.71257    0.20015    0.59848   1.00
C6       0.69095    0.15752    0.45515   1.00
C6       0.67739    0.16573    0.54119   1.00
H2       0.71155    0.14675    0.43345   1.00
H2       0.66211    0.18297    0.56310   1.00
H2       0.68618    0.13165    0.47286   1.00
H2       0.65354    0.15680    0.52228   1.00
C6       0.65129    0.17000    0.43606   1.00
C6       0.69666    0.12846    0.55942   1.00
H2       0.65439    0.19890    0.42292   1.00
H2       0.72396    0.13652    0.57383   1.00
C6       0.63333    0.14218    0.40459   1.00
C6       0.67180    0.10422    0.58911   1.00
H2       0.62998    0.17367    0.45949   1.00
H2       0.70518    0.10923    0.53546   1.00
C6       0.65900    0.14026    0.36735   1.00
C6       0.66370    0.12750    0.62708   1.00
C6       0.62734    0.10038    0.42074   1.00
C6       0.63253    0.09097    0.57107   1.00
C6       0.59280    0.15841    0.39245   1.00
C6       0.69516    0.06711    0.60054   1.00
H2       0.66431    0.16940    0.35558   1.00
H2       0.69085    0.13783    0.64020   1.00
H2       0.68719    0.12685    0.37330   1.00
H2       0.64529    0.15280    0.62154   1.00
H2       0.64494    0.12299    0.34459   1.00
H2       0.64873    0.10946    0.64863   1.00
H2       0.61227    0.08198    0.39955   1.00
H2       0.61670    0.07179    0.59098   1.00
H2       0.65524    0.08657    0.42725   1.00
H2       0.61380    0.11594    0.56494   1.00
H2       0.61002    0.10098    0.44745   1.00
H2       0.63737    0.07519    0.54385   1.00
H2       0.59544    0.18780    0.38042   1.00
H2       0.72307    0.07485    0.61383   1.00
H2       0.57916    0.14007    0.37025   1.00
H2       0.67907    0.04930    0.62149   1.00
H2       0.57305    0.15973    0.41739   1.00
H2       0.70112    0.04901    0.57502   1.00
C4       0.74751    0.48025    0.25410   1.00
C4       0.74597    0.52191    0.25424   1.00
C3       0.77672    0.45897    0.27468   1.00
C3       0.77090    0.54504    0.27817   1.00
C3       0.71904    0.45854    0.23266   1.00
C3       0.71859    0.54170    0.22974   1.00
C2       0.74953    0.39595    0.25540   1.00
C2       0.74420    0.60622    0.25314   1.00
C3       0.77764    0.41811    0.27552   1.00
C3       0.77023    0.58591    0.27754   1.00
C3       0.72087    0.41696    0.23445   1.00
C3       0.71900    0.58336    0.22980   1.00
H1       0.79864    0.47237    0.28951   1.00
H1       0.79021    0.53306    0.29724   1.00
C5       0.68991    0.47835    0.21006   1.00
C5       0.69164    0.51998    0.20622   1.00
H1       0.79937    0.40451    0.29103   1.00
H1       0.78907    0.60091    0.29539   1.00
H1       0.70098    0.40052    0.21981   1.00
H1       0.70015    0.59848    0.21257   1.00
C6       0.65752    0.45515    0.19095   1.00
C6       0.66573    0.54119    0.17739   1.00
H2       0.64675    0.43345    0.21155   1.00
H2       0.68297    0.56310    0.16211   1.00
H2       0.63165    0.47286    0.18618   1.00
H2       0.65680    0.52228    0.15354   1.00
C6       0.67000    0.43606    0.15129   1.00
C6       0.62846    0.55942    0.19666   1.00
H2       0.69890    0.42292    0.15439   1.00
H2       0.63652    0.57383    0.22396   1.00
C6       0.64218    0.40459    0.13333   1.00
C6       0.60422    0.58911    0.17180   1.00
H2       0.67367    0.45949    0.12998   1.00
H2       0.60923    0.53546    0.20518   1.00
C6       0.64026    0.36735    0.15900   1.00
C6       0.62750    0.62708    0.16370   1.00
C6       0.60038    0.42074    0.12734   1.00
C6       0.59097    0.57107    0.13253   1.00
C6       0.65841    0.39245    0.09280   1.00
C6       0.56711    0.60054    0.19516   1.00
H2       0.66940    0.35558    0.16431   1.00
H2       0.63783    0.64020    0.19085   1.00
H2       0.62685    0.37330    0.18719   1.00
H2       0.65280    0.62154    0.14529   1.00
H2       0.62299    0.34459    0.14494   1.00
H2       0.60946    0.64863    0.14873   1.00
H2       0.58198    0.39955    0.11227   1.00
H2       0.57179    0.59098    0.11670   1.00
H2       0.58657    0.42725    0.15524   1.00
H2       0.61594    0.56494    0.11380   1.00
H2       0.60098    0.44745    0.11002   1.00
H2       0.57519    0.54385    0.13737   1.00
H2       0.68780    0.38042    0.09544   1.00
H2       0.57485    0.61383    0.22307   1.00
H2       0.64007    0.37025    0.07916   1.00
H2       0.54930    0.62149    0.17907   1.00
H2       0.65973    0.41739    0.07305   1.00
H2       0.54901    0.57502    0.20112   1.00
C4       0.51975    0.25410    0.25249   1.00
C4       0.47809    0.25424    0.25403   1.00
C3       0.54103    0.27468    0.22328   1.00
C3       0.45496    0.27817    0.22910   1.00
C3       0.54146    0.23266    0.28096   1.00
C3       0.45830    0.22974    0.28141   1.00
C2       0.60405    0.25540    0.25047   1.00
C2       0.39378    0.25314    0.25580   1.00
C3       0.58189    0.27552    0.22236   1.00
C3       0.41409    0.27754    0.22977   1.00
C3       0.58304    0.23445    0.27913   1.00
C3       0.41664    0.22980    0.28100   1.00
H1       0.52763    0.28951    0.20136   1.00
H1       0.46694    0.29724    0.20979   1.00
C5       0.52165    0.21006    0.31009   1.00
C5       0.48002    0.20622    0.30836   1.00
H1       0.59549    0.29103    0.20063   1.00
H1       0.39909    0.29539    0.21093   1.00
H1       0.59948    0.21981    0.29902   1.00
H1       0.40152    0.21257    0.29985   1.00
C6       0.54485    0.19095    0.34248   1.00
C6       0.45881    0.17739    0.33427   1.00
H2       0.56655    0.21155    0.35325   1.00
H2       0.43690    0.16211    0.31703   1.00
H2       0.52714    0.18618    0.36835   1.00
H2       0.47772    0.15354    0.34320   1.00
C6       0.56394    0.15129    0.33000   1.00
C6       0.44058    0.19666    0.37154   1.00
H2       0.57708    0.15439    0.30110   1.00
H2       0.42617    0.22396    0.36348   1.00
C6       0.59541    0.13333    0.35782   1.00
C6       0.41089    0.17180    0.39578   1.00
H2       0.54051    0.12998    0.32633   1.00
H2       0.46454    0.20518    0.39077   1.00
C6       0.63265    0.15900    0.35974   1.00
C6       0.37292    0.16370    0.37250   1.00
C6       0.57926    0.12734    0.39962   1.00
C6       0.42893    0.13253    0.40903   1.00
C6       0.60755    0.09280    0.34159   1.00
C6       0.39946    0.19516    0.43289   1.00
H2       0.64442    0.16431    0.33060   1.00
H2       0.35980    0.19085    0.36217   1.00
H2       0.62670    0.18719    0.37315   1.00
H2       0.37846    0.14529    0.34720   1.00
H2       0.65541    0.14494    0.37701   1.00
H2       0.35137    0.14873    0.39054   1.00
H2       0.60045    0.11227    0.41802   1.00
H2       0.40902    0.11670    0.42821   1.00
H2       0.57275    0.15524    0.41343   1.00
H2       0.43506    0.11380    0.38406   1.00
H2       0.55255    0.11002    0.39902   1.00
H2       0.45615    0.13737    0.42481   1.00
H2       0.61958    0.09544    0.31220   1.00
H2       0.38617    0.22307    0.42515   1.00
H2       0.62975    0.07916    0.35993   1.00
H2       0.37851    0.17907    0.45070   1.00
H2       0.58261    0.07305    0.34027   1.00
H2       0.42498    0.20112    0.45099   1.00
C4       0.98025    0.25410    0.24751   1.00
C4       1.02191    0.25424    0.24597   1.00
C3       0.95897    0.27468    0.27672   1.00
C3       1.04504    0.27817    0.27090   1.00
C3       0.95854    0.23266    0.21904   1.00
C3       1.04170    0.22974    0.21859   1.00
C2       0.89595    0.25540    0.24953   1.00
C2       1.10622    0.25314    0.24420   1.00
C3       0.91811    0.27552    0.27764   1.00
C3       1.08591    0.27754    0.27023   1.00
C3       0.91696    0.23445    0.22087   1.00
C3       1.08336    0.22980    0.21900   1.00
H1       0.97237    0.28951    0.29864   1.00
H1       1.03306    0.29724    0.29021   1.00
C5       0.97835    0.21006    0.18991   1.00
C5       1.01998    0.20622    0.19164   1.00
H1       0.90451    0.29103    0.29937   1.00
H1       1.10091    0.29539    0.28907   1.00
H1       0.90052    0.21981    0.20098   1.00
H1       1.09848    0.21257    0.20015   1.00
C6       0.95515    0.19095    0.15752   1.00
C6       1.04119    0.17739    0.16573   1.00
H2       0.93345    0.21155    0.14675   1.00
H2       1.06310    0.16211    0.18297   1.00
H2       0.97286    0.18618    0.13165   1.00
H2       1.02228    0.15354    0.15680   1.00
C6       0.93606    0.15129    0.17000   1.00
C6       1.05942    0.19666    0.12846   1.00
H2       0.92292    0.15439    0.19890   1.00
H2       1.07383    0.22396    0.13652   1.00
C6       0.90459    0.13333    0.14218   1.00
C6       1.08911    0.17180    0.10422   1.00
H2       0.95949    0.12998    0.17367   1.00
H2       1.03546    0.20518    0.10923   1.00
C6       0.86735    0.15900    0.14026   1.00
C6       1.12708    0.16370    0.12750   1.00
C6       0.92074    0.12734    0.10038   1.00
C6       1.07107    0.13253    0.09097   1.00
C6       0.89245    0.09280    0.15841   1.00
C6       1.10054    0.19516    0.06711   1.00
H2       0.85558    0.16431    0.16940   1.00
H2       1.14020    0.19085    0.13783   1.00
H2       0.87330    0.18719    0.12685   1.00
H2       1.12154    0.14529    0.15280   1.00
H2       0.84459    0.14494    0.12299   1.00
H2       1.14863    0.14873    0.10946   1.00
H2       0.89955    0.11227    0.08198   1.00
H2       1.09098    0.11670    0.07179   1.00
H2       0.92725    0.15524    0.08657   1.00
H2       1.06494    0.11380    0.11594   1.00
H2       0.94745    0.11002    0.10098   1.00
H2       1.04385    0.13737    0.07519   1.00
H2       0.88042    0.09544    0.18780   1.00
H2       1.11383    0.22307    0.07485   1.00
H2       0.87025    0.07916    0.14007   1.00
H2       1.12149    0.17907    0.04930   1.00
H2       0.91739    0.07305    0.15973   1.00
H2       1.07502    0.20112    0.04901   1.00
C4       0.75249    0.01975    0.25410   1.00
C4       0.75403    -0.02191   0.25424   1.00
C3       0.72328    0.04103    0.27468   1.00
C3       0.72910    -0.04504   0.27817   1.00
C3       0.78096    0.04146    0.23266   1.00
C3       0.78141    -0.04170   0.22974   1.00
C2       0.75047    0.10405    0.25540   1.00
C2       0.75580    -0.10622   0.25314   1.00
C3       0.72236    0.08189    0.27552   1.00
C3       0.72977    -0.08591   0.27754   1.00
C3       0.77913    0.08304    0.23445   1.00
C3       0.78100    -0.08336   0.22980   1.00
H1       0.70136    0.02763    0.28951   1.00
H1       0.70979    -0.03306   0.29724   1.00
C5       0.81009    0.02165    0.21006   1.00
C5       0.80836    -0.01998   0.20622   1.00
H1       0.70063    0.09549    0.29103   1.00
H1       0.71093    -0.10091   0.29539   1.00
H1       0.79902    0.09948    0.21981   1.00
H1       0.79985    -0.09848   0.21257   1.00
C6       0.84248    0.04485    0.19095   1.00
C6       0.83427    -0.04119   0.17739   1.00
H2       0.85325    0.06655    0.21155   1.00
H2       0.81703    -0.06310   0.16211   1.00
H2       0.86835    0.02714    0.18618   1.00
H2       0.84320    -0.02228   0.15354   1.00
C6       0.83000    0.06394    0.15129   1.00
C6       0.87154    -0.05942   0.19666   1.00
H2       0.80110    0.07708    0.15439   1.00
H2       0.86348    -0.07383   0.22396   1.00
C6       0.85782    0.09541    0.13333   1.00
C6       0.89578    -0.08911   0.17180   1.00
H2       0.82633    0.04051    0.12998   1.00
H2       0.89077    -0.03546   0.20518   1.00
C6       0.85974    0.13265    0.15900   1.00
C6       0.87250    -0.12708   0.16370   1.00
C6       0.89962    0.07926    0.12734   1.00
C6       0.90903    -0.07107   0.13253   1.00
C6       0.84159    0.10755    0.09280   1.00
C6       0.93289    -0.10054   0.19516   1.00
H2       0.83060    0.14442    0.16431   1.00
H2       0.86217    -0.14020   0.19085   1.00
H2       0.87315    0.12670    0.18719   1.00
H2       0.84720    -0.12154   0.14529   1.00
H2       0.87701    0.15541    0.14494   1.00
H2       0.89054    -0.14863   0.14873   1.00
H2       0.91802    0.10045    0.11227   1.00
H2       0.92821    -0.09098   0.11670   1.00
H2       0.91343    0.07275    0.15524   1.00
H2       0.88406    -0.06494   0.11380   1.00
H2       0.89902    0.05255    0.11002   1.00
H2       0.92481    -0.04385   0.13737   1.00
H2       0.81220    0.11958    0.09544   1.00
H2       0.92515    -0.11383   0.22307   1.00
H2       0.85993    0.12975    0.07916   1.00
H2       0.95070    -0.12149   0.17907   1.00
H2       0.84027    0.08261    0.07305   1.00
H2       0.95099    -0.07502   0.20112   1.00
C4       0.75410    0.25249    0.01975   1.00
C4       0.75424    0.25403    -0.02191   1.00
C3       0.77468    0.22328    0.04103   1.00
C3       0.77817    0.22910    -0.04504   1.00
C3       0.73266    0.28096    0.04146   1.00
C3       0.72974    0.28141    -0.04170   1.00
C2       0.75540    0.25047    0.10405   1.00
C2       0.75314    0.25580    -0.10622   1.00
C3       0.77552    0.22236    0.08189   1.00
C3       0.77754    0.22977    -0.08591   1.00
C3       0.73445    0.27913    0.08304   1.00
C3       0.72980    0.28100    -0.08336   1.00
H1       0.78951    0.20136    0.02763   1.00
H1       0.79724    0.20979    -0.03306   1.00
C5       0.71006    0.31009    0.02165   1.00
C5       0.70622    0.30836    -0.01998   1.00
H1       0.79103    0.20063    0.09549   1.00
H1       0.79539    0.21093    -0.10091   1.00
H1       0.71981    0.29902    0.09948   1.00
H1       0.71257    0.29985    -0.09848   1.00
C6       0.69095    0.34248    0.04485   1.00
C6       0.67739    0.33427    -0.04119   1.00
H2       0.71155    0.35325    0.06655   1.00
H2       0.66211    0.31703    -0.06310   1.00
H2       0.68618    0.36835    0.02714   1.00
H2       0.65354    0.34320    -0.02228   1.00
C6       0.65129    0.33000    0.06394   1.00
C6       0.69666    0.37154    -0.05942   1.00
H2       0.65439    0.30110    0.07708   1.00
H2       0.72396    0.36348    -0.07383   1.00
C6       0.63333    0.35782    0.09541   1.00
C6       0.67180    0.39578    -0.08911   1.00
H2       0.62998    0.32633    0.04051   1.00
H2       0.70518    0.39077    -0.03546   1.00
C6       0.65900    0.35974    0.13265   1.00
C6       0.66370    0.37250    -0.12708   1.00
C6       0.62734    0.39962    0.07926   1.00
C6       0.63253    0.40903    -0.07107   1.00
C6       0.59280    0.34159    0.10755   1.00
C6       0.69516    0.43289    -0.10054   1.00
H2       0.66431    0.33060    0.14442   1.00
H2       0.69085    0.36217    -0.14020   1.00
H2       0.68719    0.37315    0.12670   1.00
H2       0.64529    0.34720    -0.12154   1.00
H2       0.64494    0.37701    0.15541   1.00
H2       0.64873    0.39054    -0.14863   1.00
H2       0.61227    0.41802    0.10045   1.00
H2       0.61670    0.42821    -0.09098   1.00
H2       0.65524    0.41343    0.07275   1.00
H2       0.61380    0.38406    -0.06494   1.00
H2       0.61002    0.39902    0.05255   1.00
H2       0.63737    0.42481    -0.04385   1.00
H2       0.59544    0.31220    0.11958   1.00
H2       0.72307    0.42515    -0.11383   1.00
H2       0.57916    0.35993    0.12975   1.00
H2       0.67907    0.45070    -0.12149   1.00
H2       0.57305    0.34027    0.08261   1.00
H2       0.70112    0.45099    -0.07502   1.00
C4       1.00410    0.99751    1.23025   1.00
C4       1.00424    0.99597    1.27191   1.00
C3       1.02468    1.02672    1.20897   1.00
C3       1.02817    1.02090    1.29504   1.00
C3       0.98266    0.96904    1.20854   1.00
C3       0.97974    0.96859    1.29170   1.00
C2       1.00540    0.99953    1.14595   1.00
C2       1.00314    0.99420    1.35622   1.00
C3       1.02552    1.02764    1.16811   1.00
C3       1.02754    1.02023    1.33591   1.00
C3       0.98445    0.97087    1.16696   1.00
C3       0.97980    0.96900    1.33336   1.00
H1       1.03951    1.04864    1.22237   1.00
H1       1.04724    1.04021    1.28306   1.00
C5       0.96006    0.93991    1.22835   1.00
C5       0.95622    0.94164    1.26998   1.00
H1       1.04103    1.04937    1.15451   1.00
H1       1.04539    1.03907    1.35091   1.00
H1       0.96981    0.95098    1.15052   1.00
H1       0.96257    0.95015    1.34848   1.00
C6       0.94095    0.90752    1.20515   1.00
C6       0.92739    0.91573    1.29119   1.00
H2       0.96155    0.89675    1.18345   1.00
H2       0.91211    0.93297    1.31310   1.00
H2       0.93618    0.88165    1.22286   1.00
H2       0.90354    0.90680    1.27228   1.00
C6       0.90129    0.92000    1.18606   1.00
C6       0.94666    0.87846    1.30942   1.00
H2       0.90439    0.94890    1.17292   1.00
H2       0.97396    0.88652    1.32383   1.00
C6       0.88333    0.89218    1.15459   1.00
C6       0.92180    0.85422    1.33911   1.00
H2       0.87998    0.92367    1.20949   1.00
H2       0.95518    0.85923    1.28546   1.00
C6       0.90900    0.89026    1.11735   1.00
C6       0.91370    0.87750    1.37708   1.00
C6       0.87734    0.85038    1.17074   1.00
C6       0.88253    0.84097    1.32107   1.00
C6       0.84280    0.90841    1.14245   1.00
C6       0.94516    0.81711    1.35054   1.00
H2       0.91431    0.91940    1.10558   1.00
H2       0.94085    0.88783    1.39020   1.00
H2       0.93719    0.87685    1.12330   1.00
H2       0.89529    0.90280    1.37154   1.00
H2       0.89494    0.87299    1.09459   1.00
H2       0.89873    0.85946    1.39863   1.00
H2       0.86227    0.83198    1.14955   1.00
H2       0.86670    0.82179    1.34098   1.00
H2       0.90524    0.83657    1.17725   1.00
H2       0.86380    0.86594    1.31494   1.00
H2       0.86002    0.85098    1.19745   1.00
H2       0.88737    0.82519    1.29385   1.00
H2       0.84544    0.93780    1.13042   1.00
H2       0.97307    0.82485    1.36383   1.00
H2       0.82916    0.89007    1.12025   1.00
H2       0.92907    0.79930    1.37149   1.00
H2       0.82305    0.90973    1.16739   1.00
H2       0.95112    0.79901    1.32502   1.00
C4       0.99751    1.23025    1.00410   1.00
C4       0.99597    1.27191    1.00424   1.00
C3       1.02672    1.20897    1.02468   1.00
C3       1.02090    1.29504    1.02817   1.00
C3       0.96904    1.20854    0.98266   1.00
C3       0.96859    1.29170    0.97974   1.00
C2       0.99953    1.14595    1.00540   1.00
C2       0.99420    1.35622    1.00314   1.00
C3       1.02764    1.16811    1.02552   1.00
C3       1.02023    1.33591    1.02754   1.00
C3       0.97087    1.16696    0.98445   1.00
C3       0.96900    1.33336    0.97980   1.00
H1       1.04864    1.22237    1.03951   1.00
H1       1.04021    1.28306    1.04724   1.00
C5       0.93991    1.22835    0.96006   1.00
C5       0.94164    1.26998    0.95622   1.00
H1       1.04937    1.15451    1.04103   1.00
H1       1.03907    1.35091    1.04539   1.00
H1       0.95098    1.15052    0.96981   1.00
H1       0.95015    1.34848    0.96257   1.00
C6       0.90752    1.20515    0.94095   1.00
C6       0.91573    1.29119    0.92739   1.00
H2       0.89675    1.18345    0.96155   1.00
H2       0.93297    1.31310    0.91211   1.00
H2       0.88165    1.22286    0.93618   1.00
H2       0.90680    1.27228    0.90354   1.00
C6       0.92000    1.18606    0.90129   1.00
C6       0.87846    1.30942    0.94666   1.00
H2       0.94890    1.17292    0.90439   1.00
H2       0.88652    1.32383    0.97396   1.00
C6       0.89218    1.15459    0.88333   1.00
C6       0.85422    1.33911    0.92180   1.00
H2       0.92367    1.20949    0.87998   1.00
H2       0.85923    1.28546    0.95518   1.00
C6       0.89026    1.11735    0.90900   1.00
C6       0.87750    1.37708    0.91370   1.00
C6       0.85038    1.17074    0.87734   1.00
C6       0.84097    1.32107    0.88253   1.00
C6       0.90841    1.14245    0.84280   1.00
C6       0.81711    1.35054    0.94516   1.00
H2       0.91940    1.10558    0.91431   1.00
H2       0.88783    1.39020    0.94085   1.00
H2       0.87685    1.12330    0.93719   1.00
H2       0.90280    1.37154    0.89529   1.00
H2       0.87299    1.09459    0.89494   1.00
H2       0.85946    1.39863    0.89873   1.00
H2       0.83198    1.14955    0.86227   1.00
H2       0.82179    1.34098    0.86670   1.00
H2       0.83657    1.17725    0.90524   1.00
H2       0.86594    1.31494    0.86380   1.00
H2       0.85098    1.19745    0.86002   1.00
H2       0.82519    1.29385    0.88737   1.00
H2       0.93780    1.13042    0.84544   1.00
H2       0.82485    1.36383    0.97307   1.00
H2       0.89007    1.12025    0.82916   1.00
H2       0.79930    1.37149    0.92907   1.00
H2       0.90973    1.16739    0.82305   1.00
H2       0.79901    1.32502    0.95112   1.00
C4       0.76975    1.00410    1.00249   1.00
C4       0.72809    1.00424    1.00403   1.00
C3       0.79103    1.02468    0.97328   1.00
C3       0.70496    1.02817    0.97910   1.00
C3       0.79146    0.98266    1.03096   1.00
C3       0.70830    0.97974    1.03141   1.00
C2       0.85405    1.00540    1.00047   1.00
C2       0.64378    1.00314    1.00580   1.00
C3       0.83189    1.02552    0.97236   1.00
C3       0.66409    1.02754    0.97977   1.00
C3       0.83304    0.98445    1.02913   1.00
C3       0.66664    0.97980    1.03100   1.00
H1       0.77763    1.03951    0.95136   1.00
H1       0.71694    1.04724    0.95979   1.00
C5       0.77165    0.96006    1.06009   1.00
C5       0.73002    0.95622    1.05836   1.00
H1       0.84549    1.04103    0.95063   1.00
H1       0.64909    1.04539    0.96093   1.00
H1       0.84948    0.96981    1.04902   1.00
H1       0.65152    0.96257    1.04985   1.00
C6       0.79485    0.94095    1.09248   1.00
C6       0.70881    0.92739    1.08427   1.00
H2       0.81655    0.96155    1.10325   1.00
H2       0.68690    0.91211    1.06703   1.00
H2       0.77714    0.93618    1.11835   1.00
H2       0.72772    0.90354    1.09320   1.00
C6       0.81394    0.90129    1.08000   1.00
C6       0.69058    0.94666    1.12154   1.00
H2       0.82708    0.90439    1.05110   1.00
H2       0.67617    0.97396    1.11348   1.00
C6       0.84541    0.88333    1.10782   1.00
C6       0.66089    0.92180    1.14578   1.00
H2       0.79051    0.87998    1.07633   1.00
H2       0.71454    0.95518    1.14077   1.00
C6       0.88265    0.90900    1.10974   1.00
C6       0.62292    0.91370    1.12250   1.00
C6       0.82926    0.87734    1.14962   1.00
C6       0.67893    0.88253    1.15903   1.00
C6       0.85755    0.84280    1.09159   1.00
C6       0.64946    0.94516    1.18289   1.00
H2       0.89442    0.91431    1.08060   1.00
H2       0.60980    0.94085    1.11217   1.00
H2       0.87670    0.93719    1.12315   1.00
H2       0.62846    0.89529    1.09720   1.00
H2       0.90541    0.89494    1.12701   1.00
H2       0.60137    0.89873    1.14054   1.00
H2       0.85045    0.86227    1.16802   1.00
H2       0.65902    0.86670    1.17821   1.00
H2       0.82275    0.90524    1.16343   1.00
H2       0.68506    0.86380    1.13406   1.00
H2       0.80255    0.86002    1.14902   1.00
H2       0.70615    0.88737    1.17481   1.00
H2       0.86958    0.84544    1.06220   1.00
H2       0.63617    0.97307    1.17515   1.00
H2       0.87975    0.82916    1.10993   1.00
H2       0.62851    0.92907    1.20070   1.00
H2       0.83261    0.82305    1.09027   1.00
H2       0.67498    0.95112    1.20099   1.00
C4       1.23025    1.00410    0.99751   1.00
C4       1.27191    1.00424    0.99597   1.00
C3       1.20897    1.02468    1.02672   1.00
C3       1.29504    1.02817    1.02090   1.00
C3       1.20854    0.98266    0.96904   1.00
C3       1.29170    0.97974    0.96859   1.00
C2       1.14595    1.00540    0.99953   1.00
C2       1.35622    1.00314    0.99420   1.00
C3       1.16811    1.02552    1.02764   1.00
C3       1.33591    1.02754    1.02023   1.00
C3       1.16696    0.98445    0.97087   1.00
C3       1.33336    0.97980    0.96900   1.00
H1       1.22237    1.03951    1.04864   1.00
H1       1.28306    1.04724    1.04021   1.00
C5       1.22835    0.96006    0.93991   1.00
C5       1.26998    0.95622    0.94164   1.00
H1       1.15451    1.04103    1.04937   1.00
H1       1.35091    1.04539    1.03907   1.00
H1       1.15052    0.96981    0.95098   1.00
H1       1.34848    0.96257    0.95015   1.00
C6       1.20515    0.94095    0.90752   1.00
C6       1.29119    0.92739    0.91573   1.00
H2       1.18345    0.96155    0.89675   1.00
H2       1.31310    0.91211    0.93297   1.00
H2       1.22286    0.93618    0.88165   1.00
H2       1.27228    0.90354    0.90680   1.00
C6       1.18606    0.90129    0.92000   1.00
C6       1.30942    0.94666    0.87846   1.00
H2       1.17292    0.90439    0.94890   1.00
H2       1.32383    0.97396    0.88652   1.00
C6       1.15459    0.88333    0.89218   1.00
C6       1.33911    0.92180    0.85422   1.00
H2       1.20949    0.87998    0.92367   1.00
H2       1.28546    0.95518    0.85923   1.00
C6       1.11735    0.90900    0.89026   1.00
C6       1.37708    0.91370    0.87750   1.00
C6       1.17074    0.87734    0.85038   1.00
C6       1.32107    0.88253    0.84097   1.00
C6       1.14245    0.84280    0.90841   1.00
C6       1.35054    0.94516    0.81711   1.00
H2       1.10558    0.91431    0.91940   1.00
H2       1.39020    0.94085    0.88783   1.00
H2       1.12330    0.93719    0.87685   1.00
H2       1.37154    0.89529    0.90280   1.00
H2       1.09459    0.89494    0.87299   1.00
H2       1.39863    0.89873    0.85946   1.00
H2       1.14955    0.86227    0.83198   1.00
H2       1.34098    0.86670    0.82179   1.00
H2       1.17725    0.90524    0.83657   1.00
H2       1.31494    0.86380    0.86594   1.00
H2       1.19745    0.86002    0.85098   1.00
H2       1.29385    0.88737    0.82519   1.00
H2       1.13042    0.84544    0.93780   1.00
H2       1.36383    0.97307    0.82485   1.00
H2       1.12025    0.82916    0.89007   1.00
H2       1.37149    0.92907    0.79930   1.00
H2       1.16739    0.82305    0.90973   1.00
H2       1.32502    0.95112    0.79901   1.00
C4       1.00249    0.76975    1.00410   1.00
C4       1.00403    0.72809    1.00424   1.00
C3       0.97328    0.79103    1.02468   1.00
C3       0.97910    0.70496    1.02817   1.00
C3       1.03096    0.79146    0.98266   1.00
C3       1.03141    0.70830    0.97974   1.00
C2       1.00047    0.85405    1.00540   1.00
C2       1.00580    0.64378    1.00314   1.00
C3       0.97236    0.83189    1.02552   1.00
C3       0.97977    0.66409    1.02754   1.00
C3       1.02913    0.83304    0.98445   1.00
C3       1.03100    0.66664    0.97980   1.00
H1       0.95136    0.77763    1.03951   1.00
H1       0.95979    0.71694    1.04724   1.00
C5       1.06009    0.77165    0.96006   1.00
C5       1.05836    0.73002    0.95622   1.00
H1       0.95063    0.84549    1.04103   1.00
H1       0.96093    0.64909    1.04539   1.00
H1       1.04902    0.84948    0.96981   1.00
H1       1.04985    0.65152    0.96257   1.00
C6       1.09248    0.79485    0.94095   1.00
C6       1.08427    0.70881    0.92739   1.00
H2       1.10325    0.81655    0.96155   1.00
H2       1.06703    0.68690    0.91211   1.00
H2       1.11835    0.77714    0.93618   1.00
H2       1.09320    0.72772    0.90354   1.00
C6       1.08000    0.81394    0.90129   1.00
C6       1.12154    0.69058    0.94666   1.00
H2       1.05110    0.82708    0.90439   1.00
H2       1.11348    0.67617    0.97396   1.00
C6       1.10782    0.84541    0.88333   1.00
C6       1.14578    0.66089    0.92180   1.00
H2       1.07633    0.79051    0.87998   1.00
H2       1.14077    0.71454    0.95518   1.00
C6       1.10974    0.88265    0.90900   1.00
C6       1.12250    0.62292    0.91370   1.00
C6       1.14962    0.82926    0.87734   1.00
C6       1.15903    0.67893    0.88253   1.00
C6       1.09159    0.85755    0.84280   1.00
C6       1.18289    0.64946    0.94516   1.00
H2       1.08060    0.89442    0.91431   1.00
H2       1.11217    0.60980    0.94085   1.00
H2       1.12315    0.87670    0.93719   1.00
H2       1.09720    0.62846    0.89529   1.00
H2       1.12701    0.90541    0.89494   1.00
H2       1.14054    0.60137    0.89873   1.00
H2       1.16802    0.85045    0.86227   1.00
H2       1.17821    0.65902    0.86670   1.00
H2       1.16343    0.82275    0.90524   1.00
H2       1.13406    0.68506    0.86380   1.00
H2       1.14902    0.80255    0.86002   1.00
H2       1.17481    0.70615    0.88737   1.00
H2       1.06220    0.86958    0.84544   1.00
H2       1.17515    0.63617    0.97307   1.00
H2       1.10993    0.87975    0.82916   1.00
H2       1.20070    0.62851    0.92907   1.00
H2       1.09027    0.83261    0.82305   1.00
H2       1.20099    0.67498    0.95112   1.00
C4       1.00410    1.00249    0.76975   1.00
C4       1.00424    1.00403    0.72809   1.00
C3       1.02468    0.97328    0.79103   1.00
C3       1.02817    0.97910    0.70496   1.00
C3       0.98266    1.03096    0.79146   1.00
C3       0.97974    1.03141    0.70830   1.00
C2       1.00540    1.00047    0.85405   1.00
C2       1.00314    1.00580    0.64378   1.00
C3       1.02552    0.97236    0.83189   1.00
C3       1.02754    0.97977    0.66409   1.00
C3       0.98445    1.02913    0.83304   1.00
C3       0.97980    1.03100    0.66664   1.00
H1       1.03951    0.95136    0.77763   1.00
H1       1.04724    0.95979    0.71694   1.00
C5       0.96006    1.06009    0.77165   1.00
C5       0.95622    1.05836    0.73002   1.00
H1       1.04103    0.95063    0.84549   1.00
H1       1.04539    0.96093    0.64909   1.00
H1       0.96981    1.04902    0.84948   1.00
H1       0.96257    1.04985    0.65152   1.00
C6       0.94095    1.09248    0.79485   1.00
C6       0.92739    1.08427    0.70881   1.00
H2       0.96155    1.10325    0.81655   1.00
H2       0.91211    1.06703    0.68690   1.00
H2       0.93618    1.11835    0.77714   1.00
H2       0.90354    1.09320    0.72772   1.00
C6       0.90129    1.08000    0.81394   1.00
C6       0.94666    1.12154    0.69058   1.00
H2       0.90439    1.05110    0.82708   1.00
H2       0.97396    1.11348    0.67617   1.00
C6       0.88333    1.10782    0.84541   1.00
C6       0.92180    1.14578    0.66089   1.00
H2       0.87998    1.07633    0.79051   1.00
H2       0.95518    1.14077    0.71454   1.00
C6       0.90900    1.10974    0.88265   1.00
C6       0.91370    1.12250    0.62292   1.00
C6       0.87734    1.14962    0.82926   1.00
C6       0.88253    1.15903    0.67893   1.00
C6       0.84280    1.09159    0.85755   1.00
C6       0.94516    1.18289    0.64946   1.00
H2       0.91431    1.08060    0.89442   1.00
H2       0.94085    1.11217    0.60980   1.00
H2       0.93719    1.12315    0.87670   1.00
H2       0.89529    1.09720    0.62846   1.00
H2       0.89494    1.12701    0.90541   1.00
H2       0.89873    1.14054    0.60137   1.00
H2       0.86227    1.16802    0.85045   1.00
H2       0.86670    1.17821    0.65902   1.00
H2       0.90524    1.16343    0.82275   1.00
H2       0.86380    1.13406    0.68506   1.00
H2       0.86002    1.14902    0.80255   1.00
H2       0.88737    1.17481    0.70615   1.00
H2       0.84544    1.06220    0.86958   1.00
H2       0.97307    1.17515    0.63617   1.00
H2       0.82916    1.10993    0.87975   1.00
H2       0.92907    1.20070    0.62851   1.00
H2       0.82305    1.09027    0.83261   1.00
H2       0.95112    1.20099    0.67498   1.00
C4       0.50410    0.49751    1.23025   1.00
C4       0.50424    0.49597    1.27191   1.00
C3       0.52468    0.52672    1.20897   1.00
C3       0.52817    0.52090    1.29504   1.00
C3       0.48266    0.46904    1.20854   1.00
C3       0.47974    0.46859    1.29170   1.00
C2       0.50540    0.49953    1.14595   1.00
C2       0.50314    0.49420    1.35622   1.00
C3       0.52552    0.52764    1.16811   1.00
C3       0.52754    0.52023    1.33591   1.00
C3       0.48445    0.47087    1.16696   1.00
C3       0.47980    0.46900    1.33336   1.00
H1       0.53951    0.54864    1.22237   1.00
H1       0.54724    0.54021    1.28306   1.00
C5       0.46006    0.43991    1.22835   1.00
C5       0.45622    0.44164    1.26998   1.00
H1       0.54103    0.54937    1.15451   1.00
H1       0.54539    0.53907    1.35091   1.00
H1       0.46981    0.45098    1.15052   1.00
H1       0.46257    0.45015    1.34848   1.00
C6       0.44095    0.40752    1.20515   1.00
C6       0.42739    0.41573    1.29119   1.00
H2       0.46155    0.39675    1.18345   1.00
H2       0.41211    0.43297    1.31310   1.00
H2       0.43618    0.38165    1.22286   1.00
H2       0.40354    0.40680    1.27228   1.00
C6       0.40129    0.42000    1.18606   1.00
C6       0.44666    0.37846    1.30942   1.00
H2       0.40439    0.44890    1.17292   1.00
H2       0.47396    0.38652    1.32383   1.00
C6       0.38333    0.39218    1.15459   1.00
C6       0.42180    0.35422    1.33911   1.00
H2       0.37998    0.42367    1.20949   1.00
H2       0.45518    0.35923    1.28546   1.00
C6       0.40900    0.39026    1.11735   1.00
C6       0.41370    0.37750    1.37708   1.00
C6       0.37734    0.35038    1.17074   1.00
C6       0.38253    0.34097    1.32107   1.00
C6       0.34280    0.40841    1.14245   1.00
C6       0.44516    0.31711    1.35054   1.00
H2       0.41431    0.41940    1.10558   1.00
H2       0.44085    0.38783    1.39020   1.00
H2       0.43719    0.37685    1.12330   1.00
H2       0.39529    0.40280    1.37154   1.00
H2       0.39494    0.37299    1.09459   1.00
H2       0.39873    0.35946    1.39863   1.00
H2       0.36227    0.33198    1.14955   1.00
H2       0.36670    0.32179    1.34098   1.00
H2       0.40524    0.33657    1.17725   1.00
H2       0.36380    0.36594    1.31494   1.00
H2       0.36002    0.35098    1.19745   1.00
H2       0.38737    0.32519    1.29385   1.00
H2       0.34544    0.43780    1.13042   1.00
H2       0.47307    0.32485    1.36383   1.00
H2       0.32916    0.39007    1.12025   1.00
H2       0.42907    0.29930    1.37149   1.00
H2       0.32305    0.40973    1.16739   1.00
H2       0.45112    0.29901    1.32502   1.00
C4       0.49751    0.73025    1.00410   1.00
C4       0.49597    0.77191    1.00424   1.00
C3       0.52672    0.70897    1.02468   1.00
C3       0.52090    0.79504    1.02817   1.00
C3       0.46904    0.70854    0.98266   1.00
C3       0.46859    0.79170    0.97974   1.00
C2       0.49953    0.64595    1.00540   1.00
C2       0.49420    0.85622    1.00314   1.00
C3       0.52764    0.66811    1.02552   1.00
C3       0.52023    0.83591    1.02754   1.00
C3       0.47087    0.66696    0.98445   1.00
C3       0.46900    0.83336    0.97980   1.00
H1       0.54864    0.72237    1.03951   1.00
H1       0.54021    0.78306    1.04724   1.00
C5       0.43991    0.72835    0.96006   1.00
C5       0.44164    0.76998    0.95622   1.00
H1       0.54937    0.65451    1.04103   1.00
H1       0.53907    0.85091    1.04539   1.00
H1       0.45098    0.65052    0.96981   1.00
H1       0.45015    0.84848    0.96257   1.00
C6       0.40752    0.70515    0.94095   1.00
C6       0.41573    0.79119    0.92739   1.00
H2       0.39675    0.68345    0.96155   1.00
H2       0.43297    0.81310    0.91211   1.00
H2       0.38165    0.72286    0.93618   1.00
H2       0.40680    0.77228    0.90354   1.00
C6       0.42000    0.68606    0.90129   1.00
C6       0.37846    0.80942    0.94666   1.00
H2       0.44890    0.67292    0.90439   1.00
H2       0.38652    0.82383    0.97396   1.00
C6       0.39218    0.65459    0.88333   1.00
C6       0.35422    0.83911    0.92180   1.00
H2       0.42367    0.70949    0.87998   1.00
H2       0.35923    0.78546    0.95518   1.00
C6       0.39026    0.61735    0.90900   1.00
C6       0.37750    0.87708    0.91370   1.00
C6       0.35038    0.67074    0.87734   1.00
C6       0.34097    0.82107    0.88253   1.00
C6       0.40841    0.64245    0.84280   1.00
C6       0.31711    0.85054    0.94516   1.00
H2       0.41940    0.60558    0.91431   1.00
H2       0.38783    0.89020    0.94085   1.00
H2       0.37685    0.62330    0.93719   1.00
H2       0.40280    0.87154    0.89529   1.00
H2       0.37299    0.59459    0.89494   1.00
H2       0.35946    0.89863    0.89873   1.00
H2       0.33198    0.64955    0.86227   1.00
H2       0.32179    0.84098    0.86670   1.00
H2       0.33657    0.67725    0.90524   1.00
H2       0.36594    0.81494    0.86380   1.00
H2       0.35098    0.69745    0.86002   1.00
H2       0.32519    0.79385    0.88737   1.00
H2       0.43780    0.63042    0.84544   1.00
H2       0.32485    0.86383    0.97307   1.00
H2       0.39007    0.62025    0.82916   1.00
H2       0.29930    0.87149    0.92907   1.00
H2       0.40973    0.66739    0.82305   1.00
H2       0.29901    0.82502    0.95112   1.00
C4       0.26975    0.50410    1.00249   1.00
C4       0.22809    0.50424    1.00403   1.00
C3       0.29103    0.52468    0.97328   1.00
C3       0.20496    0.52817    0.97910   1.00
C3       0.29146    0.48266    1.03096   1.00
C3       0.20830    0.47974    1.03141   1.00
C2       0.35405    0.50540    1.00047   1.00
C2       0.14378    0.50314    1.00580   1.00
C3       0.33189    0.52552    0.97236   1.00
C3       0.16409    0.52754    0.97977   1.00
C3       0.33304    0.48445    1.02913   1.00
C3       0.16664    0.47980    1.03100   1.00
H1       0.27763    0.53951    0.95136   1.00
H1       0.21694    0.54724    0.95979   1.00
C5       0.27165    0.46006    1.06009   1.00
C5       0.23002    0.45622    1.05836   1.00
H1       0.34549    0.54103    0.95063   1.00
H1       0.14909    0.54539    0.96093   1.00
H1       0.34948    0.46981    1.04902   1.00
H1       0.15152    0.46257    1.04985   1.00
C6       0.29485    0.44095    1.09248   1.00
C6       0.20881    0.42739    1.08427   1.00
H2       0.31655    0.46155    1.10325   1.00
H2       0.18690    0.41211    1.06703   1.00
H2       0.27714    0.43618    1.11835   1.00
H2       0.22772    0.40354    1.09320   1.00
C6       0.31394    0.40129    1.08000   1.00
C6       0.19058    0.44666    1.12154   1.00
H2       0.32708    0.40439    1.05110   1.00
H2       0.17617    0.47396    1.11348   1.00
C6       0.34541    0.38333    1.10782   1.00
C6       0.16089    0.42180    1.14578   1.00
H2       0.29051    0.37998    1.07633   1.00
H2       0.21454    0.45518    1.14077   1.00
C6       0.38265    0.40900    1.10974   1.00
C6       0.12292    0.41370    1.12250   1.00
C6       0.32926    0.37734    1.14962   1.00
C6       0.17893    0.38253    1.15903   1.00
C6       0.35755    0.34280    1.09159   1.00
C6       0.14946    0.44516    1.18289   1.00
H2       0.39442    0.41431    1.08060   1.00
H2       0.10980    0.44085    1.11217   1.00
H2       0.37670    0.43719    1.12315   1.00
H2       0.12846    0.39529    1.09720   1.00
H2       0.40541    0.39494    1.12701   1.00
H2       0.10137    0.39873    1.14054   1.00
H2       0.35045    0.36227    1.16802   1.00
H2       0.15902    0.36670    1.17821   1.00
H2       0.32275    0.40524    1.16343   1.00
H2       0.18506    0.36380    1.13406   1.00
H2       0.30255    0.36002    1.14902   1.00
H2       0.20615    0.38737    1.17481   1.00
H2       0.36958    0.34544    1.06220   1.00
H2       0.13617    0.47307    1.17515   1.00
H2       0.37975    0.32916    1.10993   1.00
H2       0.12851    0.42907    1.20070   1.00
H2       0.33261    0.32305    1.09027   1.00
H2       0.17498    0.45112    1.20099   1.00
C4       0.73025    0.50410    0.99751   1.00
C4       0.77191    0.50424    0.99597   1.00
C3       0.70897    0.52468    1.02672   1.00
C3       0.79504    0.52817    1.02090   1.00
C3       0.70854    0.48266    0.96904   1.00
C3       0.79170    0.47974    0.96859   1.00
C2       0.64595    0.50540    0.99953   1.00
C2       0.85622    0.50314    0.99420   1.00
C3       0.66811    0.52552    1.02764   1.00
C3       0.83591    0.52754    1.02023   1.00
C3       0.66696    0.48445    0.97087   1.00
C3       0.83336    0.47980    0.96900   1.00
H1       0.72237    0.53951    1.04864   1.00
H1       0.78306    0.54724    1.04021   1.00
C5       0.72835    0.46006    0.93991   1.00
C5       0.76998    0.45622    0.94164   1.00
H1       0.65451    0.54103    1.04937   1.00
H1       0.85091    0.54539    1.03907   1.00
H1       0.65052    0.46981    0.95098   1.00
H1       0.84848    0.46257    0.95015   1.00
C6       0.70515    0.44095    0.90752   1.00
C6       0.79119    0.42739    0.91573   1.00
H2       0.68345    0.46155    0.89675   1.00
H2       0.81310    0.41211    0.93297   1.00
H2       0.72286    0.43618    0.88165   1.00
H2       0.77228    0.40354    0.90680   1.00
C6       0.68606    0.40129    0.92000   1.00
C6       0.80942    0.44666    0.87846   1.00
H2       0.67292    0.40439    0.94890   1.00
H2       0.82383    0.47396    0.88652   1.00
C6       0.65459    0.38333    0.89218   1.00
C6       0.83911    0.42180    0.85422   1.00
H2       0.70949    0.37998    0.92367   1.00
H2       0.78546    0.45518    0.85923   1.00
C6       0.61735    0.40900    0.89026   1.00
C6       0.87708    0.41370    0.87750   1.00
C6       0.67074    0.37734    0.85038   1.00
C6       0.82107    0.38253    0.84097   1.00
C6       0.64245    0.34280    0.90841   1.00
C6       0.85054    0.44516    0.81711   1.00
H2       0.60558    0.41431    0.91940   1.00
H2       0.89020    0.44085    0.88783   1.00
H2       0.62330    0.43719    0.87685   1.00
H2       0.87154    0.39529    0.90280   1.00
H2       0.59459    0.39494    0.87299   1.00
H2       0.89863    0.39873    0.85946   1.00
H2       0.64955    0.36227    0.83198   1.00
H2       0.84098    0.36670    0.82179   1.00
H2       0.67725    0.40524    0.83657   1.00
H2       0.81494    0.36380    0.86594   1.00
H2       0.69745    0.36002    0.85098   1.00
H2       0.79385    0.38737    0.82519   1.00
H2       0.63042    0.34544    0.93780   1.00
H2       0.86383    0.47307    0.82485   1.00
H2       0.62025    0.32916    0.89007   1.00
H2       0.87149    0.42907    0.79930   1.00
H2       0.66739    0.32305    0.90973   1.00
H2       0.82502    0.45112    0.79901   1.00
C4       0.50249    0.26975    1.00410   1.00
C4       0.50403    0.22809    1.00424   1.00
C3       0.47328    0.29103    1.02468   1.00
C3       0.47910    0.20496    1.02817   1.00
C3       0.53096    0.29146    0.98266   1.00
C3       0.53141    0.20830    0.97974   1.00
C2       0.50047    0.35405    1.00540   1.00
C2       0.50580    0.14378    1.00314   1.00
C3       0.47236    0.33189    1.02552   1.00
C3       0.47977    0.16409    1.02754   1.00
C3       0.52913    0.33304    0.98445   1.00
C3       0.53100    0.16664    0.97980   1.00
H1       0.45136    0.27763    1.03951   1.00
H1       0.45979    0.21694    1.04724   1.00
C5       0.56009    0.27165    0.96006   1.00
C5       0.55836    0.23002    0.95622   1.00
H1       0.45063    0.34549    1.04103   1.00
H1       0.46093    0.14909    1.04539   1.00
H1       0.54902    0.34948    0.96981   1.00
H1       0.54985    0.15152    0.96257   1.00
C6       0.59248    0.29485    0.94095   1.00
C6       0.58427    0.20881    0.92739   1.00
H2       0.60325    0.31655    0.96155   1.00
H2       0.56703    0.18690    0.91211   1.00
H2       0.61835    0.27714    0.93618   1.00
H2       0.59320    0.22772    0.90354   1.00
C6       0.58000    0.31394    0.90129   1.00
C6       0.62154    0.19058    0.94666   1.00
H2       0.55110    0.32708    0.90439   1.00
H2       0.61348    0.17617    0.97396   1.00
C6       0.60782    0.34541    0.88333   1.00
C6       0.64578    0.16089    0.92180   1.00
H2       0.57633    0.29051    0.87998   1.00
H2       0.64077    0.21454    0.95518   1.00
C6       0.60974    0.38265    0.90900   1.00
C6       0.62250    0.12292    0.91370   1.00
C6       0.64962    0.32926    0.87734   1.00
C6       0.65903    0.17893    0.88253   1.00
C6       0.59159    0.35755    0.84280   1.00
C6       0.68289    0.14946    0.94516   1.00
H2       0.58060    0.39442    0.91431   1.00
H2       0.61217    0.10980    0.94085   1.00
H2       0.62315    0.37670    0.93719   1.00
H2       0.59720    0.12846    0.89529   1.00
H2       0.62701    0.40541    0.89494   1.00
H2       0.64054    0.10137    0.89873   1.00
H2       0.66802    0.35045    0.86227   1.00
H2       0.67821    0.15902    0.86670   1.00
H2       0.66343    0.32275    0.90524   1.00
H2       0.63406    0.18506    0.86380   1.00
H2       0.64902    0.30255    0.86002   1.00
H2       0.67481    0.20615    0.88737   1.00
H2       0.56220    0.36958    0.84544   1.00
H2       0.67515    0.13617    0.97307   1.00
H2       0.60993    0.37975    0.82916   1.00
H2       0.70070    0.12851    0.92907   1.00
H2       0.59027    0.33261    0.82305   1.00
H2       0.70099    0.17498    0.95112   1.00
C4       0.50410    0.50249    0.76975   1.00
C4       0.50424    0.50403    0.72809   1.00
C3       0.52468    0.47328    0.79103   1.00
C3       0.52817    0.47910    0.70496   1.00
C3       0.48266    0.53096    0.79146   1.00
C3       0.47974    0.53141    0.70830   1.00
C2       0.50540    0.50047    0.85405   1.00
C2       0.50314    0.50580    0.64378   1.00
C3       0.52552    0.47236    0.83189   1.00
C3       0.52754    0.47977    0.66409   1.00
C3       0.48445    0.52913    0.83304   1.00
C3       0.47980    0.53100    0.66664   1.00
H1       0.53951    0.45136    0.77763   1.00
H1       0.54724    0.45979    0.71694   1.00
C5       0.46006    0.56009    0.77165   1.00
C5       0.45622    0.55836    0.73002   1.00
H1       0.54103    0.45063    0.84549   1.00
H1       0.54539    0.46093    0.64909   1.00
H1       0.46981    0.54902    0.84948   1.00
H1       0.46257    0.54985    0.65152   1.00
C6       0.44095    0.59248    0.79485   1.00
C6       0.42739    0.58427    0.70881   1.00
H2       0.46155    0.60325    0.81655   1.00
H2       0.41211    0.56703    0.68690   1.00
H2       0.43618    0.61835    0.77714   1.00
H2       0.40354    0.59320    0.72772   1.00
C6       0.40129    0.58000    0.81394   1.00
C6       0.44666    0.62154    0.69058   1.00
H2       0.40439    0.55110    0.82708   1.00
H2       0.47396    0.61348    0.67617   1.00
C6       0.38333    0.60782    0.84541   1.00
C6       0.42180    0.64578    0.66089   1.00
H2       0.37998    0.57633    0.79051   1.00
H2       0.45518    0.64077    0.71454   1.00
C6       0.40900    0.60974    0.88265   1.00
C6       0.41370    0.62250    0.62292   1.00
C6       0.37734    0.64962    0.82926   1.00
C6       0.38253    0.65903    0.67893   1.00
C6       0.34280    0.59159    0.85755   1.00
C6       0.44516    0.68289    0.64946   1.00
H2       0.41431    0.58060    0.89442   1.00
H2       0.44085    0.61217    0.60980   1.00
H2       0.43719    0.62315    0.87670   1.00
H2       0.39529    0.59720    0.62846   1.00
H2       0.39494    0.62701    0.90541   1.00
H2       0.39873    0.64054    0.60137   1.00
H2       0.36227    0.66802    0.85045   1.00
H2       0.36670    0.67821    0.65902   1.00
H2       0.40524    0.66343    0.82275   1.00
H2       0.36380    0.63406    0.68506   1.00
H2       0.36002    0.64902    0.80255   1.00
H2       0.38737    0.67481    0.70615   1.00
H2       0.34544    0.56220    0.86958   1.00
H2       0.47307    0.67515    0.63617   1.00
H2       0.32916    0.60993    0.87975   1.00
H2       0.42907    0.70070    0.62851   1.00
H2       0.32305    0.59027    0.83261   1.00
H2       0.45112    0.70099    0.67498   1.00
C4       0.50410    0.99751    0.73025   1.00
C4       0.50424    0.99597    0.77191   1.00
C3       0.52468    1.02672    0.70897   1.00
C3       0.52817    1.02090    0.79504   1.00
C3       0.48266    0.96904    0.70854   1.00
C3       0.47974    0.96859    0.79170   1.00
C2       0.50540    0.99953    0.64595   1.00
C2       0.50314    0.99420    0.85622   1.00
C3       0.52552    1.02764    0.66811   1.00
C3       0.52754    1.02023    0.83591   1.00
C3       0.48445    0.97087    0.66696   1.00
C3       0.47980    0.96900    0.83336   1.00
H1       0.53951    1.04864    0.72237   1.00
H1       0.54724    1.04021    0.78306   1.00
C5       0.46006    0.93991    0.72835   1.00
C5       0.45622    0.94164    0.76998   1.00
H1       0.54103    1.04937    0.65451   1.00
H1       0.54539    1.03907    0.85091   1.00
H1       0.46981    0.95098    0.65052   1.00
H1       0.46257    0.95015    0.84848   1.00
C6       0.44095    0.90752    0.70515   1.00
C6       0.42739    0.91573    0.79119   1.00
H2       0.46155    0.89675    0.68345   1.00
H2       0.41211    0.93297    0.81310   1.00
H2       0.43618    0.88165    0.72286   1.00
H2       0.40354    0.90680    0.77228   1.00
C6       0.40129    0.92000    0.68606   1.00
C6       0.44666    0.87846    0.80942   1.00
H2       0.40439    0.94890    0.67292   1.00
H2       0.47396    0.88652    0.82383   1.00
C6       0.38333    0.89218    0.65459   1.00
C6       0.42180    0.85422    0.83911   1.00
H2       0.37998    0.92367    0.70949   1.00
H2       0.45518    0.85923    0.78546   1.00
C6       0.40900    0.89026    0.61735   1.00
C6       0.41370    0.87750    0.87708   1.00
C6       0.37734    0.85038    0.67074   1.00
C6       0.38253    0.84097    0.82107   1.00
C6       0.34280    0.90841    0.64245   1.00
C6       0.44516    0.81711    0.85054   1.00
H2       0.41431    0.91940    0.60558   1.00
H2       0.44085    0.88783    0.89020   1.00
H2       0.43719    0.87685    0.62330   1.00
H2       0.39529    0.90280    0.87154   1.00
H2       0.39494    0.87299    0.59459   1.00
H2       0.39873    0.85946    0.89863   1.00
H2       0.36227    0.83198    0.64955   1.00
H2       0.36670    0.82179    0.84098   1.00
H2       0.40524    0.83657    0.67725   1.00
H2       0.36380    0.86594    0.81494   1.00
H2       0.36002    0.85098    0.69745   1.00
H2       0.38737    0.82519    0.79385   1.00
H2       0.34544    0.93780    0.63042   1.00
H2       0.47307    0.82485    0.86383   1.00
H2       0.32916    0.89007    0.62025   1.00
H2       0.42907    0.79930    0.87149   1.00
H2       0.32305    0.90973    0.66739   1.00
H2       0.45112    0.79901    0.82502   1.00
C4       0.49751    1.23025    0.50410   1.00
C4       0.49597    1.27191    0.50424   1.00
C3       0.52672    1.20897    0.52468   1.00
C3       0.52090    1.29504    0.52817   1.00
C3       0.46904    1.20854    0.48266   1.00
C3       0.46859    1.29170    0.47974   1.00
C2       0.49953    1.14595    0.50540   1.00
C2       0.49420    1.35622    0.50314   1.00
C3       0.52764    1.16811    0.52552   1.00
C3       0.52023    1.33591    0.52754   1.00
C3       0.47087    1.16696    0.48445   1.00
C3       0.46900    1.33336    0.47980   1.00
H1       0.54864    1.22237    0.53951   1.00
H1       0.54021    1.28306    0.54724   1.00
C5       0.43991    1.22835    0.46006   1.00
C5       0.44164    1.26998    0.45622   1.00
H1       0.54937    1.15451    0.54103   1.00
H1       0.53907    1.35091    0.54539   1.00
H1       0.45098    1.15052    0.46981   1.00
H1       0.45015    1.34848    0.46257   1.00
C6       0.40752    1.20515    0.44095   1.00
C6       0.41573    1.29119    0.42739   1.00
H2       0.39675    1.18345    0.46155   1.00
H2       0.43297    1.31310    0.41211   1.00
H2       0.38165    1.22286    0.43618   1.00
H2       0.40680    1.27228    0.40354   1.00
C6       0.42000    1.18606    0.40129   1.00
C6       0.37846    1.30942    0.44666   1.00
H2       0.44890    1.17292    0.40439   1.00
H2       0.38652    1.32383    0.47396   1.00
C6       0.39218    1.15459    0.38333   1.00
C6       0.35422    1.33911    0.42180   1.00
H2       0.42367    1.20949    0.37998   1.00
H2       0.35923    1.28546    0.45518   1.00
C6       0.39026    1.11735    0.40900   1.00
C6       0.37750    1.37708    0.41370   1.00
C6       0.35038    1.17074    0.37734   1.00
C6       0.34097    1.32107    0.38253   1.00
C6       0.40841    1.14245    0.34280   1.00
C6       0.31711    1.35054    0.44516   1.00
H2       0.41940    1.10558    0.41431   1.00
H2       0.38783    1.39020    0.44085   1.00
H2       0.37685    1.12330    0.43719   1.00
H2       0.40280    1.37154    0.39529   1.00
H2       0.37299    1.09459    0.39494   1.00
H2       0.35946    1.39863    0.39873   1.00
H2       0.33198    1.14955    0.36227   1.00
H2       0.32179    1.34098    0.36670   1.00
H2       0.33657    1.17725    0.40524   1.00
H2       0.36594    1.31494    0.36380   1.00
H2       0.35098    1.19745    0.36002   1.00
H2       0.32519    1.29385    0.38737   1.00
H2       0.43780    1.13042    0.34544   1.00
H2       0.32485    1.36383    0.47307   1.00
H2       0.39007    1.12025    0.32916   1.00
H2       0.29930    1.37149    0.42907   1.00
H2       0.40973    1.16739    0.32305   1.00
H2       0.29901    1.32502    0.45112   1.00
C4       0.26975    1.00410    0.50249   1.00
C4       0.22809    1.00424    0.50403   1.00
C3       0.29103    1.02468    0.47328   1.00
C3       0.20496    1.02817    0.47910   1.00
C3       0.29146    0.98266    0.53096   1.00
C3       0.20830    0.97974    0.53141   1.00
C2       0.35405    1.00540    0.50047   1.00
C2       0.14378    1.00314    0.50580   1.00
C3       0.33189    1.02552    0.47236   1.00
C3       0.16409    1.02754    0.47977   1.00
C3       0.33304    0.98445    0.52913   1.00
C3       0.16664    0.97980    0.53100   1.00
H1       0.27763    1.03951    0.45136   1.00
H1       0.21694    1.04724    0.45979   1.00
C5       0.27165    0.96006    0.56009   1.00
C5       0.23002    0.95622    0.55836   1.00
H1       0.34549    1.04103    0.45063   1.00
H1       0.14909    1.04539    0.46093   1.00
H1       0.34948    0.96981    0.54902   1.00
H1       0.15152    0.96257    0.54985   1.00
C6       0.29485    0.94095    0.59248   1.00
C6       0.20881    0.92739    0.58427   1.00
H2       0.31655    0.96155    0.60325   1.00
H2       0.18690    0.91211    0.56703   1.00
H2       0.27714    0.93618    0.61835   1.00
H2       0.22772    0.90354    0.59320   1.00
C6       0.31394    0.90129    0.58000   1.00
C6       0.19058    0.94666    0.62154   1.00
H2       0.32708    0.90439    0.55110   1.00
H2       0.17617    0.97396    0.61348   1.00
C6       0.34541    0.88333    0.60782   1.00
C6       0.16089    0.92180    0.64578   1.00
H2       0.29051    0.87998    0.57633   1.00
H2       0.21454    0.95518    0.64077   1.00
C6       0.38265    0.90900    0.60974   1.00
C6       0.12292    0.91370    0.62250   1.00
C6       0.32926    0.87734    0.64962   1.00
C6       0.17893    0.88253    0.65903   1.00
C6       0.35755    0.84280    0.59159   1.00
C6       0.14946    0.94516    0.68289   1.00
H2       0.39442    0.91431    0.58060   1.00
H2       0.10980    0.94085    0.61217   1.00
H2       0.37670    0.93719    0.62315   1.00
H2       0.12846    0.89529    0.59720   1.00
H2       0.40541    0.89494    0.62701   1.00
H2       0.10137    0.89873    0.64054   1.00
H2       0.35045    0.86227    0.66802   1.00
H2       0.15902    0.86670    0.67821   1.00
H2       0.32275    0.90524    0.66343   1.00
H2       0.18506    0.86380    0.63406   1.00
H2       0.30255    0.86002    0.64902   1.00
H2       0.20615    0.88737    0.67481   1.00
H2       0.36958    0.84544    0.56220   1.00
H2       0.13617    0.97307    0.67515   1.00
H2       0.37975    0.82916    0.60993   1.00
H2       0.12851    0.92907    0.70070   1.00
H2       0.33261    0.82305    0.59027   1.00
H2       0.17498    0.95112    0.70099   1.00
C4       0.73025    1.00410    0.49751   1.00
C4       0.77191    1.00424    0.49597   1.00
C3       0.70897    1.02468    0.52672   1.00
C3       0.79504    1.02817    0.52090   1.00
C3       0.70854    0.98266    0.46904   1.00
C3       0.79170    0.97974    0.46859   1.00
C2       0.64595    1.00540    0.49953   1.00
C2       0.85622    1.00314    0.49420   1.00
C3       0.66811    1.02552    0.52764   1.00
C3       0.83591    1.02754    0.52023   1.00
C3       0.66696    0.98445    0.47087   1.00
C3       0.83336    0.97980    0.46900   1.00
H1       0.72237    1.03951    0.54864   1.00
H1       0.78306    1.04724    0.54021   1.00
C5       0.72835    0.96006    0.43991   1.00
C5       0.76998    0.95622    0.44164   1.00
H1       0.65451    1.04103    0.54937   1.00
H1       0.85091    1.04539    0.53907   1.00
H1       0.65052    0.96981    0.45098   1.00
H1       0.84848    0.96257    0.45015   1.00
C6       0.70515    0.94095    0.40752   1.00
C6       0.79119    0.92739    0.41573   1.00
H2       0.68345    0.96155    0.39675   1.00
H2       0.81310    0.91211    0.43297   1.00
H2       0.72286    0.93618    0.38165   1.00
H2       0.77228    0.90354    0.40680   1.00
C6       0.68606    0.90129    0.42000   1.00
C6       0.80942    0.94666    0.37846   1.00
H2       0.67292    0.90439    0.44890   1.00
H2       0.82383    0.97396    0.38652   1.00
C6       0.65459    0.88333    0.39218   1.00
C6       0.83911    0.92180    0.35422   1.00
H2       0.70949    0.87998    0.42367   1.00
H2       0.78546    0.95518    0.35923   1.00
C6       0.61735    0.90900    0.39026   1.00
C6       0.87708    0.91370    0.37750   1.00
C6       0.67074    0.87734    0.35038   1.00
C6       0.82107    0.88253    0.34097   1.00
C6       0.64245    0.84280    0.40841   1.00
C6       0.85054    0.94516    0.31711   1.00
H2       0.60558    0.91431    0.41940   1.00
H2       0.89020    0.94085    0.38783   1.00
H2       0.62330    0.93719    0.37685   1.00
H2       0.87154    0.89529    0.40280   1.00
H2       0.59459    0.89494    0.37299   1.00
H2       0.89863    0.89873    0.35946   1.00
H2       0.64955    0.86227    0.33198   1.00
H2       0.84098    0.86670    0.32179   1.00
H2       0.67725    0.90524    0.33657   1.00
H2       0.81494    0.86380    0.36594   1.00
H2       0.69745    0.86002    0.35098   1.00
H2       0.79385    0.88737    0.32519   1.00
H2       0.63042    0.84544    0.43780   1.00
H2       0.86383    0.97307    0.32485   1.00
H2       0.62025    0.82916    0.39007   1.00
H2       0.87149    0.92907    0.29930   1.00
H2       0.66739    0.82305    0.40973   1.00
H2       0.82502    0.95112    0.29901   1.00
C4       0.50249    0.76975    0.50410   1.00
C4       0.50403    0.72809    0.50424   1.00
C3       0.47328    0.79103    0.52468   1.00
C3       0.47910    0.70496    0.52817   1.00
C3       0.53096    0.79146    0.48266   1.00
C3       0.53141    0.70830    0.47974   1.00
C2       0.50047    0.85405    0.50540   1.00
C2       0.50580    0.64378    0.50314   1.00
C3       0.47236    0.83189    0.52552   1.00
C3       0.47977    0.66409    0.52754   1.00
C3       0.52913    0.83304    0.48445   1.00
C3       0.53100    0.66664    0.47980   1.00
H1       0.45136    0.77763    0.53951   1.00
H1       0.45979    0.71694    0.54724   1.00
C5       0.56009    0.77165    0.46006   1.00
C5       0.55836    0.73002    0.45622   1.00
H1       0.45063    0.84549    0.54103   1.00
H1       0.46093    0.64909    0.54539   1.00
H1       0.54902    0.84948    0.46981   1.00
H1       0.54985    0.65152    0.46257   1.00
C6       0.59248    0.79485    0.44095   1.00
C6       0.58427    0.70881    0.42739   1.00
H2       0.60325    0.81655    0.46155   1.00
H2       0.56703    0.68690    0.41211   1.00
H2       0.61835    0.77714    0.43618   1.00
H2       0.59320    0.72772    0.40354   1.00
C6       0.58000    0.81394    0.40129   1.00
C6       0.62154    0.69058    0.44666   1.00
H2       0.55110    0.82708    0.40439   1.00
H2       0.61348    0.67617    0.47396   1.00
C6       0.60782    0.84541    0.38333   1.00
C6       0.64578    0.66089    0.42180   1.00
H2       0.57633    0.79051    0.37998   1.00
H2       0.64077    0.71454    0.45518   1.00
C6       0.60974    0.88265    0.40900   1.00
C6       0.62250    0.62292    0.41370   1.00
C6       0.64962    0.82926    0.37734   1.00
C6       0.65903    0.67893    0.38253   1.00
C6       0.59159    0.85755    0.34280   1.00
C6       0.68289    0.64946    0.44516   1.00
H2       0.58060    0.89442    0.41431   1.00
H2       0.61217    0.60980    0.44085   1.00
H2       0.62315    0.87670    0.43719   1.00
H2       0.59720    0.62846    0.39529   1.00
H2       0.62701    0.90541    0.39494   1.00
H2       0.64054    0.60137    0.39873   1.00
H2       0.66802    0.85045    0.36227   1.00
H2       0.67821    0.65902    0.36670   1.00
H2       0.66343    0.82275    0.40524   1.00
H2       0.63406    0.68506    0.36380   1.00
H2       0.64902    0.80255    0.36002   1.00
H2       0.67481    0.70615    0.38737   1.00
H2       0.56220    0.86958    0.34544   1.00
H2       0.67515    0.63617    0.47307   1.00
H2       0.60993    0.87975    0.32916   1.00
H2       0.70070    0.62851    0.42907   1.00
H2       0.59027    0.83261    0.32305   1.00
H2       0.70099    0.67498    0.45112   1.00
C4       0.50410    1.00249    0.26975   1.00
C4       0.50424    1.00403    0.22809   1.00
C3       0.52468    0.97328    0.29103   1.00
C3       0.52817    0.97910    0.20496   1.00
C3       0.48266    1.03096    0.29146   1.00
C3       0.47974    1.03141    0.20830   1.00
C2       0.50540    1.00047    0.35405   1.00
C2       0.50314    1.00580    0.14378   1.00
C3       0.52552    0.97236    0.33189   1.00
C3       0.52754    0.97977    0.16409   1.00
C3       0.48445    1.02913    0.33304   1.00
C3       0.47980    1.03100    0.16664   1.00
H1       0.53951    0.95136    0.27763   1.00
H1       0.54724    0.95979    0.21694   1.00
C5       0.46006    1.06009    0.27165   1.00
C5       0.45622    1.05836    0.23002   1.00
H1       0.54103    0.95063    0.34549   1.00
H1       0.54539    0.96093    0.14909   1.00
H1       0.46981    1.04902    0.34948   1.00
H1       0.46257    1.04985    0.15152   1.00
C6       0.44095    1.09248    0.29485   1.00
C6       0.42739    1.08427    0.20881   1.00
H2       0.46155    1.10325    0.31655   1.00
H2       0.41211    1.06703    0.18690   1.00
H2       0.43618    1.11835    0.27714   1.00
H2       0.40354    1.09320    0.22772   1.00
C6       0.40129    1.08000    0.31394   1.00
C6       0.44666    1.12154    0.19058   1.00
H2       0.40439    1.05110    0.32708   1.00
H2       0.47396    1.11348    0.17617   1.00
C6       0.38333    1.10782    0.34541   1.00
C6       0.42180    1.14578    0.16089   1.00
H2       0.37998    1.07633    0.29051   1.00
H2       0.45518    1.14077    0.21454   1.00
C6       0.40900    1.10974    0.38265   1.00
C6       0.41370    1.12250    0.12292   1.00
C6       0.37734    1.14962    0.32926   1.00
C6       0.38253    1.15903    0.17893   1.00
C6       0.34280    1.09159    0.35755   1.00
C6       0.44516    1.18289    0.14946   1.00
H2       0.41431    1.08060    0.39442   1.00
H2       0.44085    1.11217    0.10980   1.00
H2       0.43719    1.12315    0.37670   1.00
H2       0.39529    1.09720    0.12846   1.00
H2       0.39494    1.12701    0.40541   1.00
H2       0.39873    1.14054    0.10137   1.00
H2       0.36227    1.16802    0.35045   1.00
H2       0.36670    1.17821    0.15902   1.00
H2       0.40524    1.16343    0.32275   1.00
H2       0.36380    1.13406    0.18506   1.00
H2       0.36002    1.14902    0.30255   1.00
H2       0.38737    1.17481    0.20615   1.00
H2       0.34544    1.06220    0.36958   1.00
H2       0.47307    1.17515    0.13617   1.00
H2       0.32916    1.10993    0.37975   1.00
H2       0.42907    1.20070    0.12851   1.00
H2       0.32305    1.09027    0.33261   1.00
H2       0.45112    1.20099    0.17498   1.00
C4       1.00410    0.49751    0.73025   1.00
C4       1.00424    0.49597    0.77191   1.00
C3       1.02468    0.52672    0.70897   1.00
C3       1.02817    0.52090    0.79504   1.00
C3       0.98266    0.46904    0.70854   1.00
C3       0.97974    0.46859    0.79170   1.00
C2       1.00540    0.49953    0.64595   1.00
C2       1.00314    0.49420    0.85622   1.00
C3       1.02552    0.52764    0.66811   1.00
C3       1.02754    0.52023    0.83591   1.00
C3       0.98445    0.47087    0.66696   1.00
C3       0.97980    0.46900    0.83336   1.00
H1       1.03951    0.54864    0.72237   1.00
H1       1.04724    0.54021    0.78306   1.00
C5       0.96006    0.43991    0.72835   1.00
C5       0.95622    0.44164    0.76998   1.00
H1       1.04103    0.54937    0.65451   1.00
H1       1.04539    0.53907    0.85091   1.00
H1       0.96981    0.45098    0.65052   1.00
H1       0.96257    0.45015    0.84848   1.00
C6       0.94095    0.40752    0.70515   1.00
C6       0.92739    0.41573    0.79119   1.00
H2       0.96155    0.39675    0.68345   1.00
H2       0.91211    0.43297    0.81310   1.00
H2       0.93618    0.38165    0.72286   1.00
H2       0.90354    0.40680    0.77228   1.00
C6       0.90129    0.42000    0.68606   1.00
C6       0.94666    0.37846    0.80942   1.00
H2       0.90439    0.44890    0.67292   1.00
H2       0.97396    0.38652    0.82383   1.00
C6       0.88333    0.39218    0.65459   1.00
C6       0.92180    0.35422    0.83911   1.00
H2       0.87998    0.42367    0.70949   1.00
H2       0.95518    0.35923    0.78546   1.00
C6       0.90900    0.39026    0.61735   1.00
C6       0.91370    0.37750    0.87708   1.00
C6       0.87734    0.35038    0.67074   1.00
C6       0.88253    0.34097    0.82107   1.00
C6       0.84280    0.40841    0.64245   1.00
C6       0.94516    0.31711    0.85054   1.00
H2       0.91431    0.41940    0.60558   1.00
H2       0.94085    0.38783    0.89020   1.00
H2       0.93719    0.37685    0.62330   1.00
H2       0.89529    0.40280    0.87154   1.00
H2       0.89494    0.37299    0.59459   1.00
H2       0.89873    0.35946    0.89863   1.00
H2       0.86227    0.33198    0.64955   1.00
H2       0.86670    0.32179    0.84098   1.00
H2       0.90524    0.33657    0.67725   1.00
H2       0.86380    0.36594    0.81494   1.00
H2       0.86002    0.35098    0.69745   1.00
H2       0.88737    0.32519    0.79385   1.00
H2       0.84544    0.43780    0.63042   1.00
H2       0.97307    0.32485    0.86383   1.00
H2       0.82916    0.39007    0.62025   1.00
H2       0.92907    0.29930    0.87149   1.00
H2       0.82305    0.40973    0.66739   1.00
H2       0.95112    0.29901    0.82502   1.00
C4       0.99751    0.73025    0.50410   1.00
C4       0.99597    0.77191    0.50424   1.00
C3       1.02672    0.70897    0.52468   1.00
C3       1.02090    0.79504    0.52817   1.00
C3       0.96904    0.70854    0.48266   1.00
C3       0.96859    0.79170    0.47974   1.00
C2       0.99953    0.64595    0.50540   1.00
C2       0.99420    0.85622    0.50314   1.00
C3       1.02764    0.66811    0.52552   1.00
C3       1.02023    0.83591    0.52754   1.00
C3       0.97087    0.66696    0.48445   1.00
C3       0.96900    0.83336    0.47980   1.00
H1       1.04864    0.72237    0.53951   1.00
H1       1.04021    0.78306    0.54724   1.00
C5       0.93991    0.72835    0.46006   1.00
C5       0.94164    0.76998    0.45622   1.00
H1       1.04937    0.65451    0.54103   1.00
H1       1.03907    0.85091    0.54539   1.00
H1       0.95098    0.65052    0.46981   1.00
H1       0.95015    0.84848    0.46257   1.00
C6       0.90752    0.70515    0.44095   1.00
C6       0.91573    0.79119    0.42739   1.00
H2       0.89675    0.68345    0.46155   1.00
H2       0.93297    0.81310    0.41211   1.00
H2       0.88165    0.72286    0.43618   1.00
H2       0.90680    0.77228    0.40354   1.00
C6       0.92000    0.68606    0.40129   1.00
C6       0.87846    0.80942    0.44666   1.00
H2       0.94890    0.67292    0.40439   1.00
H2       0.88652    0.82383    0.47396   1.00
C6       0.89218    0.65459    0.38333   1.00
C6       0.85422    0.83911    0.42180   1.00
H2       0.92367    0.70949    0.37998   1.00
H2       0.85923    0.78546    0.45518   1.00
C6       0.89026    0.61735    0.40900   1.00
C6       0.87750    0.87708    0.41370   1.00
C6       0.85038    0.67074    0.37734   1.00
C6       0.84097    0.82107    0.38253   1.00
C6       0.90841    0.64245    0.34280   1.00
C6       0.81711    0.85054    0.44516   1.00
H2       0.91940    0.60558    0.41431   1.00
H2       0.88783    0.89020    0.44085   1.00
H2       0.87685    0.62330    0.43719   1.00
H2       0.90280    0.87154    0.39529   1.00
H2       0.87299    0.59459    0.39494   1.00
H2       0.85946    0.89863    0.39873   1.00
H2       0.83198    0.64955    0.36227   1.00
H2       0.82179    0.84098    0.36670   1.00
H2       0.83657    0.67725    0.40524   1.00
H2       0.86594    0.81494    0.36380   1.00
H2       0.85098    0.69745    0.36002   1.00
H2       0.82519    0.79385    0.38737   1.00
H2       0.93780    0.63042    0.34544   1.00
H2       0.82485    0.86383    0.47307   1.00
H2       0.89007    0.62025    0.32916   1.00
H2       0.79930    0.87149    0.42907   1.00
H2       0.90973    0.66739    0.32305   1.00
H2       0.79901    0.82502    0.45112   1.00
C4       0.76975    0.50410    0.50249   1.00
C4       0.72809    0.50424    0.50403   1.00
C3       0.79103    0.52468    0.47328   1.00
C3       0.70496    0.52817    0.47910   1.00
C3       0.79146    0.48266    0.53096   1.00
C3       0.70830    0.47974    0.53141   1.00
C2       0.85405    0.50540    0.50047   1.00
C2       0.64378    0.50314    0.50580   1.00
C3       0.83189    0.52552    0.47236   1.00
C3       0.66409    0.52754    0.47977   1.00
C3       0.83304    0.48445    0.52913   1.00
C3       0.66664    0.47980    0.53100   1.00
H1       0.77763    0.53951    0.45136   1.00
H1       0.71694    0.54724    0.45979   1.00
C5       0.77165    0.46006    0.56009   1.00
C5       0.73002    0.45622    0.55836   1.00
H1       0.84549    0.54103    0.45063   1.00
H1       0.64909    0.54539    0.46093   1.00
H1       0.84948    0.46981    0.54902   1.00
H1       0.65152    0.46257    0.54985   1.00
C6       0.79485    0.44095    0.59248   1.00
C6       0.70881    0.42739    0.58427   1.00
H2       0.81655    0.46155    0.60325   1.00
H2       0.68690    0.41211    0.56703   1.00
H2       0.77714    0.43618    0.61835   1.00
H2       0.72772    0.40354    0.59320   1.00
C6       0.81394    0.40129    0.58000   1.00
C6       0.69058    0.44666    0.62154   1.00
H2       0.82708    0.40439    0.55110   1.00
H2       0.67617    0.47396    0.61348   1.00
C6       0.84541    0.38333    0.60782   1.00
C6       0.66089    0.42180    0.64578   1.00
H2       0.79051    0.37998    0.57633   1.00
H2       0.71454    0.45518    0.64077   1.00
C6       0.88265    0.40900    0.60974   1.00
C6       0.62292    0.41370    0.62250   1.00
C6       0.82926    0.37734    0.64962   1.00
C6       0.67893    0.38253    0.65903   1.00
C6       0.85755    0.34280    0.59159   1.00
C6       0.64946    0.44516    0.68289   1.00
H2       0.89442    0.41431    0.58060   1.00
H2       0.60980    0.44085    0.61217   1.00
H2       0.87670    0.43719    0.62315   1.00
H2       0.62846    0.39529    0.59720   1.00
H2       0.90541    0.39494    0.62701   1.00
H2       0.60137    0.39873    0.64054   1.00
H2       0.85045    0.36227    0.66802   1.00
H2       0.65902    0.36670    0.67821   1.00
H2       0.82275    0.40524    0.66343   1.00
H2       0.68506    0.36380    0.63406   1.00
H2       0.80255    0.36002    0.64902   1.00
H2       0.70615    0.38737    0.67481   1.00
H2       0.86958    0.34544    0.56220   1.00
H2       0.63617    0.47307    0.67515   1.00
H2       0.87975    0.32916    0.60993   1.00
H2       0.62851    0.42907    0.70070   1.00
H2       0.83261    0.32305    0.59027   1.00
H2       0.67498    0.45112    0.70099   1.00
C4       1.23025    0.50410    0.49751   1.00
C4       1.27191    0.50424    0.49597   1.00
C3       1.20897    0.52468    0.52672   1.00
C3       1.29504    0.52817    0.52090   1.00
C3       1.20854    0.48266    0.46904   1.00
C3       1.29170    0.47974    0.46859   1.00
C2       1.14595    0.50540    0.49953   1.00
C2       1.35622    0.50314    0.49420   1.00
C3       1.16811    0.52552    0.52764   1.00
C3       1.33591    0.52754    0.52023   1.00
C3       1.16696    0.48445    0.47087   1.00
C3       1.33336    0.47980    0.46900   1.00
H1       1.22237    0.53951    0.54864   1.00
H1       1.28306    0.54724    0.54021   1.00
C5       1.22835    0.46006    0.43991   1.00
C5       1.26998    0.45622    0.44164   1.00
H1       1.15451    0.54103    0.54937   1.00
H1       1.35091    0.54539    0.53907   1.00
H1       1.15052    0.46981    0.45098   1.00
H1       1.34848    0.46257    0.45015   1.00
C6       1.20515    0.44095    0.40752   1.00
C6       1.29119    0.42739    0.41573   1.00
H2       1.18345    0.46155    0.39675   1.00
H2       1.31310    0.41211    0.43297   1.00
H2       1.22286    0.43618    0.38165   1.00
H2       1.27228    0.40354    0.40680   1.00
C6       1.18606    0.40129    0.42000   1.00
C6       1.30942    0.44666    0.37846   1.00
H2       1.17292    0.40439    0.44890   1.00
H2       1.32383    0.47396    0.38652   1.00
C6       1.15459    0.38333    0.39218   1.00
C6       1.33911    0.42180    0.35422   1.00
H2       1.20949    0.37998    0.42367   1.00
H2       1.28546    0.45518    0.35923   1.00
C6       1.11735    0.40900    0.39026   1.00
C6       1.37708    0.41370    0.37750   1.00
C6       1.17074    0.37734    0.35038   1.00
C6       1.32107    0.38253    0.34097   1.00
C6       1.14245    0.34280    0.40841   1.00
C6       1.35054    0.44516    0.31711   1.00
H2       1.10558    0.41431    0.41940   1.00
H2       1.39020    0.44085    0.38783   1.00
H2       1.12330    0.43719    0.37685   1.00
H2       1.37154    0.39529    0.40280   1.00
H2       1.09459    0.39494    0.37299   1.00
H2       1.39863    0.39873    0.35946   1.00
H2       1.14955    0.36227    0.33198   1.00
H2       1.34098    0.36670    0.32179   1.00
H2       1.17725    0.40524    0.33657   1.00
H2       1.31494    0.36380    0.36594   1.00
H2       1.19745    0.36002    0.35098   1.00
H2       1.29385    0.38737    0.32519   1.00
H2       1.13042    0.34544    0.43780   1.00
H2       1.36383    0.47307    0.32485   1.00
H2       1.12025    0.32916    0.39007   1.00
H2       1.37149    0.42907    0.29930   1.00
H2       1.16739    0.32305    0.40973   1.00
H2       1.32502    0.45112    0.29901   1.00
C4       1.00249    0.26975    0.50410   1.00
C4       1.00403    0.22809    0.50424   1.00
C3       0.97328    0.29103    0.52468   1.00
C3       0.97910    0.20496    0.52817   1.00
C3       1.03096    0.29146    0.48266   1.00
C3       1.03141    0.20830    0.47974   1.00
C2       1.00047    0.35405    0.50540   1.00
C2       1.00580    0.14378    0.50314   1.00
C3       0.97236    0.33189    0.52552   1.00
C3       0.97977    0.16409    0.52754   1.00
C3       1.02913    0.33304    0.48445   1.00
C3       1.03100    0.16664    0.47980   1.00
H1       0.95136    0.27763    0.53951   1.00
H1       0.95979    0.21694    0.54724   1.00
C5       1.06009    0.27165    0.46006   1.00
C5       1.05836    0.23002    0.45622   1.00
H1       0.95063    0.34549    0.54103   1.00
H1       0.96093    0.14909    0.54539   1.00
H1       1.04902    0.34948    0.46981   1.00
H1       1.04985    0.15152    0.46257   1.00
C6       1.09248    0.29485    0.44095   1.00
C6       1.08427    0.20881    0.42739   1.00
H2       1.10325    0.31655    0.46155   1.00
H2       1.06703    0.18690    0.41211   1.00
H2       1.11835    0.27714    0.43618   1.00
H2       1.09320    0.22772    0.40354   1.00
C6       1.08000    0.31394    0.40129   1.00
C6       1.12154    0.19058    0.44666   1.00
H2       1.05110    0.32708    0.40439   1.00
H2       1.11348    0.17617    0.47396   1.00
C6       1.10782    0.34541    0.38333   1.00
C6       1.14578    0.16089    0.42180   1.00
H2       1.07633    0.29051    0.37998   1.00
H2       1.14077    0.21454    0.45518   1.00
C6       1.10974    0.38265    0.40900   1.00
C6       1.12250    0.12292    0.41370   1.00
C6       1.14962    0.32926    0.37734   1.00
C6       1.15903    0.17893    0.38253   1.00
C6       1.09159    0.35755    0.34280   1.00
C6       1.18289    0.14946    0.44516   1.00
H2       1.08060    0.39442    0.41431   1.00
H2       1.11217    0.10980    0.44085   1.00
H2       1.12315    0.37670    0.43719   1.00
H2       1.09720    0.12846    0.39529   1.00
H2       1.12701    0.40541    0.39494   1.00
H2       1.14054    0.10137    0.39873   1.00
H2       1.16802    0.35045    0.36227   1.00
H2       1.17821    0.15902    0.36670   1.00
H2       1.16343    0.32275    0.40524   1.00
H2       1.13406    0.18506    0.36380   1.00
H2       1.14902    0.30255    0.36002   1.00
H2       1.17481    0.20615    0.38737   1.00
H2       1.06220    0.36958    0.34544   1.00
H2       1.17515    0.13617    0.47307   1.00
H2       1.10993    0.37975    0.32916   1.00
H2       1.20070    0.12851    0.42907   1.00
H2       1.09027    0.33261    0.32305   1.00
H2       1.20099    0.17498    0.45112   1.00
C4       1.00410    0.50249    0.26975   1.00
C4       1.00424    0.50403    0.22809   1.00
C3       1.02468    0.47328    0.29103   1.00
C3       1.02817    0.47910    0.20496   1.00
C3       0.98266    0.53096    0.29146   1.00
C3       0.97974    0.53141    0.20830   1.00
C2       1.00540    0.50047    0.35405   1.00
C2       1.00314    0.50580    0.14378   1.00
C3       1.02552    0.47236    0.33189   1.00
C3       1.02754    0.47977    0.16409   1.00
C3       0.98445    0.52913    0.33304   1.00
C3       0.97980    0.53100    0.16664   1.00
H1       1.03951    0.45136    0.27763   1.00
H1       1.04724    0.45979    0.21694   1.00
C5       0.96006    0.56009    0.27165   1.00
C5       0.95622    0.55836    0.23002   1.00
H1       1.04103    0.45063    0.34549   1.00
H1       1.04539    0.46093    0.14909   1.00
H1       0.96981    0.54902    0.34948   1.00
H1       0.96257    0.54985    0.15152   1.00
C6       0.94095    0.59248    0.29485   1.00
C6       0.92739    0.58427    0.20881   1.00
H2       0.96155    0.60325    0.31655   1.00
H2       0.91211    0.56703    0.18690   1.00
H2       0.93618    0.61835    0.27714   1.00
H2       0.90354    0.59320    0.22772   1.00
C6       0.90129    0.58000    0.31394   1.00
C6       0.94666    0.62154    0.19058   1.00
H2       0.90439    0.55110    0.32708   1.00
H2       0.97396    0.61348    0.17617   1.00
C6       0.88333    0.60782    0.34541   1.00
C6       0.92180    0.64578    0.16089   1.00
H2       0.87998    0.57633    0.29051   1.00
H2       0.95518    0.64077    0.21454   1.00
C6       0.90900    0.60974    0.38265   1.00
C6       0.91370    0.62250    0.12292   1.00
C6       0.87734    0.64962    0.32926   1.00
C6       0.88253    0.65903    0.17893   1.00
C6       0.84280    0.59159    0.35755   1.00
C6       0.94516    0.68289    0.14946   1.00
H2       0.91431    0.58060    0.39442   1.00
H2       0.94085    0.61217    0.10980   1.00
H2       0.93719    0.62315    0.37670   1.00
H2       0.89529    0.59720    0.12846   1.00
H2       0.89494    0.62701    0.40541   1.00
H2       0.89873    0.64054    0.10137   1.00
H2       0.86227    0.66802    0.35045   1.00
H2       0.86670    0.67821    0.15902   1.00
H2       0.90524    0.66343    0.32275   1.00
H2       0.86380    0.63406    0.18506   1.00
H2       0.86002    0.64902    0.30255   1.00
H2       0.88737    0.67481    0.20615   1.00
H2       0.84544    0.56220    0.36958   1.00
H2       0.97307    0.67515    0.13617   1.00
H2       0.82916    0.60993    0.37975   1.00
H2       0.92907    0.70070    0.12851   1.00
H2       0.82305    0.59027    0.33261   1.00
H2       0.95112    0.70099    0.17498   1.00
