data_IRMOF10_SG202_interpen_Ligand8lp_label_o.

_audit_creation_method             'generated by an auxiliary program of Tobunporous'

_symmetry_space_group_name_H-M     'P 1'
_symmetry_Int_Tables_number        1
_symmetry_cell_setting             triclinic

_cell_length_a                    34.2800
_cell_length_b                    34.2800
_cell_length_c                    34.2800
_cell_angle_alpha                 90.0000
_cell_angle_beta                  90.0000
_cell_angle_gamma                 90.0000

loop_
_atom_site_label
_atom_site_fract_x
_atom_site_fract_y
_atom_site_fract_z
_atom_site_occupancy
O1       0.75000    0.75000    0.75000   1.00
Zn1      0.71720    0.78280    0.78280   1.00
Zn1      0.78280    0.71720    0.78280   1.00
Zn1      0.78280    0.78280    0.71720   1.00
Zn1      0.71720    0.71720    0.71720   1.00
O2       0.72650    0.77350    0.83820   1.00
O2       0.72650    0.83820    0.77350   1.00
O2       0.66180    0.77350    0.77350   1.00
O2       0.77350    0.72650    0.83820   1.00
O2       0.83820    0.72650    0.77350   1.00
O2       0.77350    0.66180    0.77350   1.00
O2       0.77350    0.83820    0.72650   1.00
O2       0.83820    0.77350    0.72650   1.00
O2       0.77350    0.77350    0.66180   1.00
O2       0.66180    0.72650    0.72650   1.00
O2       0.72650    0.66180    0.72650   1.00
O2       0.72650    0.72650    0.66180   1.00
C1       0.75000    0.75000    0.85520   1.00
C1       0.75000    0.85520    0.75000   1.00
C1       0.64480    0.75000    0.75000   1.00
C1       0.85520    0.75000    0.75000   1.00
C1       0.75000    0.64480    0.75000   1.00
C1       0.75000    0.75000    0.64480   1.00
O1       0.25000    0.25000    0.75000   1.00
Zn1      0.21720    0.28280    0.78280   1.00
Zn1      0.28280    0.21720    0.78280   1.00
Zn1      0.28280    0.28280    0.71720   1.00
Zn1      0.21720    0.21720    0.71720   1.00
O2       0.22650    0.27350    0.83820   1.00
O2       0.22650    0.33820    0.77350   1.00
O2       0.16180    0.27350    0.77350   1.00
O2       0.27350    0.22650    0.83820   1.00
O2       0.33820    0.22650    0.77350   1.00
O2       0.27350    0.16180    0.77350   1.00
O2       0.27350    0.33820    0.72650   1.00
O2       0.33820    0.27350    0.72650   1.00
O2       0.27350    0.27350    0.66180   1.00
O2       0.16180    0.22650    0.72650   1.00
O2       0.22650    0.16180    0.72650   1.00
O2       0.22650    0.22650    0.66180   1.00
C1       0.25000    0.25000    0.85520   1.00
C1       0.25000    0.35520    0.75000   1.00
C1       0.14480    0.25000    0.75000   1.00
C1       0.35520    0.25000    0.75000   1.00
C1       0.25000    0.14480    0.75000   1.00
C1       0.25000    0.25000    0.64480   1.00
O1       0.25000    0.75000    0.25000   1.00
Zn1      0.21720    0.78280    0.28280   1.00
Zn1      0.28280    0.71720    0.28280   1.00
Zn1      0.28280    0.78280    0.21720   1.00
Zn1      0.21720    0.71720    0.21720   1.00
O2       0.22650    0.77350    0.33820   1.00
O2       0.22650    0.83820    0.27350   1.00
O2       0.16180    0.77350    0.27350   1.00
O2       0.27350    0.72650    0.33820   1.00
O2       0.33820    0.72650    0.27350   1.00
O2       0.27350    0.66180    0.27350   1.00
O2       0.27350    0.83820    0.22650   1.00
O2       0.33820    0.77350    0.22650   1.00
O2       0.27350    0.77350    0.16180   1.00
O2       0.16180    0.72650    0.22650   1.00
O2       0.22650    0.66180    0.22650   1.00
O2       0.22650    0.72650    0.16180   1.00
C1       0.25000    0.75000    0.35520   1.00
C1       0.25000    0.85520    0.25000   1.00
C1       0.14480    0.75000    0.25000   1.00
C1       0.35520    0.75000    0.25000   1.00
C1       0.25000    0.64480    0.25000   1.00
C1       0.25000    0.75000    0.14480   1.00
O1       0.75000    0.25000    0.25000   1.00
Zn1      0.71720    0.28280    0.28280   1.00
Zn1      0.78280    0.21720    0.28280   1.00
Zn1      0.78280    0.28280    0.21720   1.00
Zn1      0.71720    0.21720    0.21720   1.00
O2       0.72650    0.27350    0.33820   1.00
O2       0.72650    0.33820    0.27350   1.00
O2       0.66180    0.27350    0.27350   1.00
O2       0.77350    0.22650    0.33820   1.00
O2       0.83820    0.22650    0.27350   1.00
O2       0.77350    0.16180    0.27350   1.00
O2       0.77350    0.33820    0.22650   1.00
O2       0.83820    0.27350    0.22650   1.00
O2       0.77350    0.27350    0.16180   1.00
O2       0.66180    0.22650    0.22650   1.00
O2       0.72650    0.16180    0.22650   1.00
O2       0.72650    0.22650    0.16180   1.00
C1       0.75000    0.25000    0.35520   1.00
C1       0.75000    0.35520    0.25000   1.00
C1       0.64480    0.25000    0.25000   1.00
C1       0.85520    0.25000    0.25000   1.00
C1       0.75000    0.14480    0.25000   1.00
C1       0.75000    0.25000    0.14480   1.00
O1       0.25000    0.25000    0.25000   1.00
Zn1      0.28280    0.21720    0.21720   1.00
Zn1      0.21720    0.28280    0.21720   1.00
Zn1      0.21720    0.21720    0.28280   1.00
Zn1      0.28280    0.28280    0.28280   1.00
O2       0.27350    0.22650    0.16180   1.00
O2       0.27350    0.16180    0.22650   1.00
O2       0.33820    0.22650    0.22650   1.00
O2       0.22650    0.27350    0.16180   1.00
O2       0.16180    0.27350    0.22650   1.00
O2       0.22650    0.33820    0.22650   1.00
O2       0.22650    0.16180    0.27350   1.00
O2       0.16180    0.22650    0.27350   1.00
O2       0.22650    0.22650    0.33820   1.00
O2       0.33820    0.27350    0.27350   1.00
O2       0.27350    0.33820    0.27350   1.00
O2       0.27350    0.27350    0.33820   1.00
C1       0.25000    0.25000    0.14480   1.00
C1       0.25000    0.14480    0.25000   1.00
C1       0.35520    0.25000    0.25000   1.00
C1       0.14480    0.25000    0.25000   1.00
C1       0.25000    0.35520    0.25000   1.00
C1       0.25000    0.25000    0.35520   1.00
O1       0.75000    0.75000    0.25000   1.00
Zn1      0.78280    0.71720    0.21720   1.00
Zn1      0.71720    0.78280    0.21720   1.00
Zn1      0.71720    0.71720    0.28280   1.00
Zn1      0.78280    0.78280    0.28280   1.00
O2       0.77350    0.72650    0.16180   1.00
O2       0.77350    0.66180    0.22650   1.00
O2       0.83820    0.72650    0.22650   1.00
O2       0.72650    0.77350    0.16180   1.00
O2       0.66180    0.77350    0.22650   1.00
O2       0.72650    0.83820    0.22650   1.00
O2       0.72650    0.66180    0.27350   1.00
O2       0.66180    0.72650    0.27350   1.00
O2       0.72650    0.72650    0.33820   1.00
O2       0.83820    0.77350    0.27350   1.00
O2       0.77350    0.83820    0.27350   1.00
O2       0.77350    0.77350    0.33820   1.00
C1       0.75000    0.75000    0.14480   1.00
C1       0.75000    0.64480    0.25000   1.00
C1       0.85520    0.75000    0.25000   1.00
C1       0.64480    0.75000    0.25000   1.00
C1       0.75000    0.85520    0.25000   1.00
C1       0.75000    0.75000    0.35520   1.00
O1       0.75000    0.25000    0.75000   1.00
Zn1      0.78280    0.21720    0.71720   1.00
Zn1      0.71720    0.28280    0.71720   1.00
Zn1      0.71720    0.21720    0.78280   1.00
Zn1      0.78280    0.28280    0.78280   1.00
O2       0.77350    0.22650    0.66180   1.00
O2       0.77350    0.16180    0.72650   1.00
O2       0.83820    0.22650    0.72650   1.00
O2       0.72650    0.27350    0.66180   1.00
O2       0.66180    0.27350    0.72650   1.00
O2       0.72650    0.33820    0.72650   1.00
O2       0.72650    0.16180    0.77350   1.00
O2       0.66180    0.22650    0.77350   1.00
O2       0.72650    0.22650    0.83820   1.00
O2       0.83820    0.27350    0.77350   1.00
O2       0.77350    0.33820    0.77350   1.00
O2       0.77350    0.27350    0.83820   1.00
C1       0.75000    0.25000    0.64480   1.00
C1       0.75000    0.14480    0.75000   1.00
C1       0.85520    0.25000    0.75000   1.00
C1       0.64480    0.25000    0.75000   1.00
C1       0.75000    0.35520    0.75000   1.00
C1       0.75000    0.25000    0.85520   1.00
O1       0.25000    0.75000    0.75000   1.00
Zn1      0.28280    0.71720    0.71720   1.00
Zn1      0.21720    0.78280    0.71720   1.00
Zn1      0.21720    0.71720    0.78280   1.00
Zn1      0.28280    0.78280    0.78280   1.00
O2       0.27350    0.72650    0.66180   1.00
O2       0.27350    0.66180    0.72650   1.00
O2       0.33820    0.72650    0.72650   1.00
O2       0.22650    0.77350    0.66180   1.00
O2       0.16180    0.77350    0.72650   1.00
O2       0.22650    0.83820    0.72650   1.00
O2       0.22650    0.66180    0.77350   1.00
O2       0.16180    0.72650    0.77350   1.00
O2       0.22650    0.72650    0.83820   1.00
O2       0.33820    0.77350    0.77350   1.00
O2       0.27350    0.83820    0.77350   1.00
O2       0.27350    0.77350    0.83820   1.00
C1       0.25000    0.75000    0.64480   1.00
C1       0.25000    0.64480    0.75000   1.00
C1       0.35520    0.75000    0.75000   1.00
C1       0.14480    0.75000    0.75000   1.00
C1       0.25000    0.85520    0.75000   1.00
C1       0.25000    0.75000    0.85520   1.00
O1       1.00000    1.00000    1.00000   1.00
Zn1      0.96720    1.03280    1.03280   1.00
Zn1      1.03280    0.96720    1.03280   1.00
Zn1      1.03280    1.03280    0.96720   1.00
Zn1      0.96720    0.96720    0.96720   1.00
O2       0.97650    1.02350    1.08820   1.00
O2       0.97650    1.08820    1.02350   1.00
O2       0.91180    1.02350    1.02350   1.00
O2       1.02350    0.97650    1.08820   1.00
O2       1.08820    0.97650    1.02350   1.00
O2       1.02350    0.91180    1.02350   1.00
O2       1.02350    1.08820    0.97650   1.00
O2       1.08820    1.02350    0.97650   1.00
O2       1.02350    1.02350    0.91180   1.00
O2       0.91180    0.97650    0.97650   1.00
O2       0.97650    0.91180    0.97650   1.00
O2       0.97650    0.97650    0.91180   1.00
C1       1.00000    1.00000    1.10520   1.00
C1       1.00000    1.10520    1.00000   1.00
C1       0.89480    1.00000    1.00000   1.00
C1       1.10520    1.00000    1.00000   1.00
C1       1.00000    0.89480    1.00000   1.00
C1       1.00000    1.00000    0.89480   1.00
O1       0.50000    0.50000    1.00000   1.00
Zn1      0.46720    0.53280    1.03280   1.00
Zn1      0.53280    0.46720    1.03280   1.00
Zn1      0.53280    0.53280    0.96720   1.00
Zn1      0.46720    0.46720    0.96720   1.00
O2       0.47650    0.52350    1.08820   1.00
O2       0.47650    0.58820    1.02350   1.00
O2       0.41180    0.52350    1.02350   1.00
O2       0.52350    0.47650    1.08820   1.00
O2       0.58820    0.47650    1.02350   1.00
O2       0.52350    0.41180    1.02350   1.00
O2       0.52350    0.58820    0.97650   1.00
O2       0.58820    0.52350    0.97650   1.00
O2       0.52350    0.52350    0.91180   1.00
O2       0.41180    0.47650    0.97650   1.00
O2       0.47650    0.41180    0.97650   1.00
O2       0.47650    0.47650    0.91180   1.00
C1       0.50000    0.50000    1.10520   1.00
C1       0.50000    0.60520    1.00000   1.00
C1       0.39480    0.50000    1.00000   1.00
C1       0.60520    0.50000    1.00000   1.00
C1       0.50000    0.39480    1.00000   1.00
C1       0.50000    0.50000    0.89480   1.00
O1       0.50000    1.00000    0.50000   1.00
Zn1      0.46720    1.03280    0.53280   1.00
Zn1      0.53280    0.96720    0.53280   1.00
Zn1      0.53280    1.03280    0.46720   1.00
Zn1      0.46720    0.96720    0.46720   1.00
O2       0.47650    1.02350    0.58820   1.00
O2       0.47650    1.08820    0.52350   1.00
O2       0.41180    1.02350    0.52350   1.00
O2       0.52350    0.97650    0.58820   1.00
O2       0.58820    0.97650    0.52350   1.00
O2       0.52350    0.91180    0.52350   1.00
O2       0.52350    1.08820    0.47650   1.00
O2       0.58820    1.02350    0.47650   1.00
O2       0.52350    1.02350    0.41180   1.00
O2       0.41180    0.97650    0.47650   1.00
O2       0.47650    0.91180    0.47650   1.00
O2       0.47650    0.97650    0.41180   1.00
C1       0.50000    1.00000    0.60520   1.00
C1       0.50000    1.10520    0.50000   1.00
C1       0.39480    1.00000    0.50000   1.00
C1       0.60520    1.00000    0.50000   1.00
C1       0.50000    0.89480    0.50000   1.00
C1       0.50000    1.00000    0.39480   1.00
O1       1.00000    0.50000    0.50000   1.00
Zn1      0.96720    0.53280    0.53280   1.00
Zn1      1.03280    0.46720    0.53280   1.00
Zn1      1.03280    0.53280    0.46720   1.00
Zn1      0.96720    0.46720    0.46720   1.00
O2       0.97650    0.52350    0.58820   1.00
O2       0.97650    0.58820    0.52350   1.00
O2       0.91180    0.52350    0.52350   1.00
O2       1.02350    0.47650    0.58820   1.00
O2       1.08820    0.47650    0.52350   1.00
O2       1.02350    0.41180    0.52350   1.00
O2       1.02350    0.58820    0.47650   1.00
O2       1.08820    0.52350    0.47650   1.00
O2       1.02350    0.52350    0.41180   1.00
O2       0.91180    0.47650    0.47650   1.00
O2       0.97650    0.41180    0.47650   1.00
O2       0.97650    0.47650    0.41180   1.00
C1       1.00000    0.50000    0.60520   1.00
C1       1.00000    0.60520    0.50000   1.00
C1       0.89480    0.50000    0.50000   1.00
C1       1.10520    0.50000    0.50000   1.00
C1       1.00000    0.39480    0.50000   1.00
C1       1.00000    0.50000    0.39480   1.00
O1       0.50000    0.50000    0.50000   1.00
Zn1      0.53280    0.46720    0.46720   1.00
Zn1      0.46720    0.53280    0.46720   1.00
Zn1      0.46720    0.46720    0.53280   1.00
Zn1      0.53280    0.53280    0.53280   1.00
O2       0.52350    0.47650    0.41180   1.00
O2       0.52350    0.41180    0.47650   1.00
O2       0.58820    0.47650    0.47650   1.00
O2       0.47650    0.52350    0.41180   1.00
O2       0.41180    0.52350    0.47650   1.00
O2       0.47650    0.58820    0.47650   1.00
O2       0.47650    0.41180    0.52350   1.00
O2       0.41180    0.47650    0.52350   1.00
O2       0.47650    0.47650    0.58820   1.00
O2       0.58820    0.52350    0.52350   1.00
O2       0.52350    0.58820    0.52350   1.00
O2       0.52350    0.52350    0.58820   1.00
C1       0.50000    0.50000    0.39480   1.00
C1       0.50000    0.39480    0.50000   1.00
C1       0.60520    0.50000    0.50000   1.00
C1       0.39480    0.50000    0.50000   1.00
C1       0.50000    0.60520    0.50000   1.00
C1       0.50000    0.50000    0.60520   1.00
O1       1.00000    1.00000    0.50000   1.00
Zn1      1.03280    0.96720    0.46720   1.00
Zn1      0.96720    1.03280    0.46720   1.00
Zn1      0.96720    0.96720    0.53280   1.00
Zn1      1.03280    1.03280    0.53280   1.00
O2       1.02350    0.97650    0.41180   1.00
O2       1.02350    0.91180    0.47650   1.00
O2       1.08820    0.97650    0.47650   1.00
O2       0.97650    1.02350    0.41180   1.00
O2       0.91180    1.02350    0.47650   1.00
O2       0.97650    1.08820    0.47650   1.00
O2       0.97650    0.91180    0.52350   1.00
O2       0.91180    0.97650    0.52350   1.00
O2       0.97650    0.97650    0.58820   1.00
O2       1.08820    1.02350    0.52350   1.00
O2       1.02350    1.08820    0.52350   1.00
O2       1.02350    1.02350    0.58820   1.00
C1       1.00000    1.00000    0.39480   1.00
C1       1.00000    0.89480    0.50000   1.00
C1       1.10520    1.00000    0.50000   1.00
C1       0.89480    1.00000    0.50000   1.00
C1       1.00000    1.10520    0.50000   1.00
C1       1.00000    1.00000    0.60520   1.00
O1       1.00000    0.50000    1.00000   1.00
Zn1      1.03280    0.46720    0.96720   1.00
Zn1      0.96720    0.53280    0.96720   1.00
Zn1      0.96720    0.46720    1.03280   1.00
Zn1      1.03280    0.53280    1.03280   1.00
O2       1.02350    0.47650    0.91180   1.00
O2       1.02350    0.41180    0.97650   1.00
O2       1.08820    0.47650    0.97650   1.00
O2       0.97650    0.52350    0.91180   1.00
O2       0.91180    0.52350    0.97650   1.00
O2       0.97650    0.58820    0.97650   1.00
O2       0.97650    0.41180    1.02350   1.00
O2       0.91180    0.47650    1.02350   1.00
O2       0.97650    0.47650    1.08820   1.00
O2       1.08820    0.52350    1.02350   1.00
O2       1.02350    0.58820    1.02350   1.00
O2       1.02350    0.52350    1.08820   1.00
C1       1.00000    0.50000    0.89480   1.00
C1       1.00000    0.39480    1.00000   1.00
C1       1.10520    0.50000    1.00000   1.00
C1       0.89480    0.50000    1.00000   1.00
C1       1.00000    0.60520    1.00000   1.00
C1       1.00000    0.50000    1.10520   1.00
O1       0.50000    1.00000    1.00000   1.00
Zn1      0.53280    0.96720    0.96720   1.00
Zn1      0.46720    1.03280    0.96720   1.00
Zn1      0.46720    0.96720    1.03280   1.00
Zn1      0.53280    1.03280    1.03280   1.00
O2       0.52350    0.97650    0.91180   1.00
O2       0.52350    0.91180    0.97650   1.00
O2       0.58820    0.97650    0.97650   1.00
O2       0.47650    1.02350    0.91180   1.00
O2       0.41180    1.02350    0.97650   1.00
O2       0.47650    1.08820    0.97650   1.00
O2       0.47650    0.91180    1.02350   1.00
O2       0.41180    0.97650    1.02350   1.00
O2       0.47650    0.97650    1.08820   1.00
O2       0.58820    1.02350    1.02350   1.00
O2       0.52350    1.08820    1.02350   1.00
O2       0.52350    1.02350    1.08820   1.00
C1       0.50000    1.00000    0.89480   1.00
C1       0.50000    0.89480    1.00000   1.00
C1       0.60520    1.00000    1.00000   1.00
C1       0.39480    1.00000    1.00000   1.00
C1       0.50000    1.10520    1.00000   1.00
C1       0.50000    1.00000    1.10520   1.00
C4       0.75000    0.74990    0.97915   1.00
C4       0.75000    0.75010    1.02085   1.00
C3       0.77506    0.72577    0.95708   1.00
C3       0.72082    0.73042    1.04225   1.00
C3       0.72432    0.77438    0.95816   1.00
C3a      0.77968    0.76966    1.04263   1.00
C2       0.74916    0.75125    0.89483   1.00
C2       0.75054    0.74863    1.10517   1.00
C3       0.77460    0.72650    0.91566   1.00
C3       0.72115    0.72972    1.08359   1.00
C3       0.72404    0.77516    0.91680   1.00
C3       0.77955    0.76851    1.08415   1.00
H1       0.79505    0.70633    0.97192   1.00
H1       0.69777    0.71523    1.02685   1.00
H1       0.79427    0.70765    0.89968   1.00
H1       0.69830    0.71422    1.09895   1.00
H1       0.70431    0.79473    0.90179   1.00
H1       0.80207    0.78353    1.10043   1.00
C5       0.81146    0.79274    1.02239   1.00
H1       0.70508    0.79379    0.97401   1.00
H2       0.83401    0.80255    1.04354   1.00
H2       0.82662    0.77363    1.00103   1.00
N1       0.79515    0.82706    1.00292   1.00
C6       0.77528    0.85628    1.02012   1.00
C6       0.79758    0.83538    0.96460   1.00
C6       0.76457    0.88343    0.99243   1.00
C6       0.77874    0.87013    0.95711   1.00
H3       0.76869    0.85774    1.05099   1.00
H3       0.81178    0.81709    0.94309   1.00
H3       0.74828    0.90998    0.99741   1.00
H3       0.77566    0.88415    0.92903   1.00
C4       0.74990    0.97915    0.75000   1.00
C4       0.75010    1.02085    0.75000   1.00
C3       0.72577    0.95708    0.77506   1.00
C3       0.73042    1.04225    0.72082   1.00
C3       0.77438    0.95816    0.72432   1.00
C3a      0.76966    1.04263    0.77968   1.00
C2       0.75125    0.89483    0.74916   1.00
C2       0.74863    1.10517    0.75054   1.00
C3       0.72650    0.91566    0.77460   1.00
C3       0.72972    1.08359    0.72115   1.00
C3       0.77516    0.91680    0.72404   1.00
C3       0.76851    1.08415    0.77955   1.00
H1       0.70633    0.97192    0.79505   1.00
H1       0.71523    1.02685    0.69777   1.00
H1       0.70765    0.89968    0.79427   1.00
H1       0.71422    1.09895    0.69830   1.00
H1       0.79473    0.90179    0.70431   1.00
H1       0.78353    1.10043    0.80207   1.00
C5       0.79274    1.02239    0.81146   1.00
H1       0.79379    0.97401    0.70508   1.00
H2       0.80255    1.04354    0.83401   1.00
H2       0.77363    1.00103    0.82662   1.00
N1       0.82706    1.00292    0.79515   1.00
C6       0.85628    1.02012    0.77528   1.00
C6       0.83538    0.96460    0.79758   1.00
C6       0.88343    0.99243    0.76457   1.00
C6       0.87013    0.95711    0.77874   1.00
H3       0.85774    1.05099    0.76869   1.00
H3       0.81709    0.94309    0.81178   1.00
H3       0.90998    0.99741    0.74828   1.00
H3       0.88415    0.92903    0.77566   1.00
C4       0.52085    0.75000    0.75010   1.00
C4       0.47915    0.75000    0.74990   1.00
C3       0.54292    0.77506    0.77423   1.00
C3       0.45775    0.72082    0.76958   1.00
C3       0.54184    0.72432    0.72562   1.00
C3a      0.45737    0.77968    0.73034   1.00
C2       0.60517    0.74916    0.74875   1.00
C2       0.39483    0.75054    0.75137   1.00
C3       0.58434    0.77460    0.77350   1.00
C3       0.41641    0.72115    0.77028   1.00
C3       0.58320    0.72404    0.72484   1.00
C3       0.41585    0.77955    0.73149   1.00
H1       0.52808    0.79505    0.79367   1.00
H1       0.47315    0.69777    0.78477   1.00
H1       0.60032    0.79427    0.79235   1.00
H1       0.40105    0.69830    0.78578   1.00
H1       0.59821    0.70431    0.70527   1.00
H1       0.39957    0.80207    0.71647   1.00
C5       0.47761    0.81146    0.70726   1.00
H1       0.52599    0.70508    0.70621   1.00
H2       0.45646    0.83401    0.69745   1.00
H2       0.49897    0.82662    0.72637   1.00
N1       0.49708    0.79515    0.67294   1.00
C6       0.47988    0.77528    0.64372   1.00
C6       0.53540    0.79758    0.66462   1.00
C6       0.50757    0.76457    0.61657   1.00
C6       0.54289    0.77874    0.62987   1.00
H3       0.44901    0.76869    0.64226   1.00
H3       0.55691    0.81178    0.68291   1.00
H3       0.50259    0.74828    0.59002   1.00
H3       0.57097    0.77566    0.61585   1.00
C4       0.97915    0.75000    0.74990   1.00
C4       1.02085    0.75000    0.75010   1.00
C3       0.95708    0.77506    0.72577   1.00
C3       1.04225    0.72082    0.73042   1.00
C3       0.95816    0.72432    0.77438   1.00
C3a      1.04263    0.77968    0.76966   1.00
C2       0.89483    0.74916    0.75125   1.00
C2       1.10517    0.75054    0.74863   1.00
C3       0.91566    0.77460    0.72650   1.00
C3       1.08359    0.72115    0.72972   1.00
C3       0.91680    0.72404    0.77516   1.00
C3       1.08415    0.77955    0.76851   1.00
H1       0.97192    0.79505    0.70633   1.00
H1       1.02685    0.69777    0.71523   1.00
H1       0.89968    0.79427    0.70765   1.00
H1       1.09895    0.69830    0.71422   1.00
H1       0.90179    0.70431    0.79473   1.00
H1       1.10043    0.80207    0.78353   1.00
C5       1.02239    0.81146    0.79274   1.00
H1       0.97401    0.70508    0.79379   1.00
H2       1.04354    0.83401    0.80255   1.00
H2       1.00103    0.82662    0.77363   1.00
N1       1.00292    0.79515    0.82706   1.00
C6       1.02012    0.77528    0.85628   1.00
C6       0.96460    0.79758    0.83538   1.00
C6       0.99243    0.76457    0.88343   1.00
C6       0.95711    0.77874    0.87013   1.00
H3       1.05099    0.76869    0.85774   1.00
H3       0.94309    0.81178    0.81709   1.00
H3       0.99741    0.74828    0.90998   1.00
H3       0.92903    0.77566    0.88415   1.00
C4       0.75010    0.52085    0.75000   1.00
C4       0.74990    0.47915    0.75000   1.00
C3       0.77423    0.54292    0.77506   1.00
C3       0.76958    0.45775    0.72082   1.00
C3       0.72562    0.54184    0.72432   1.00
C3a      0.73034    0.45737    0.77968   1.00
C2       0.74875    0.60517    0.74916   1.00
C2       0.75137    0.39483    0.75054   1.00
C3       0.77350    0.58434    0.77460   1.00
C3       0.77028    0.41641    0.72115   1.00
C3       0.72484    0.58320    0.72404   1.00
C3       0.73149    0.41585    0.77955   1.00
H1       0.79367    0.52808    0.79505   1.00
H1       0.78477    0.47315    0.69777   1.00
H1       0.79235    0.60032    0.79427   1.00
H1       0.78578    0.40105    0.69830   1.00
H1       0.70527    0.59821    0.70431   1.00
H1       0.71647    0.39957    0.80207   1.00
C5       0.70726    0.47761    0.81146   1.00
H1       0.70621    0.52599    0.70508   1.00
H2       0.69745    0.45646    0.83401   1.00
H2       0.72637    0.49897    0.82662   1.00
N1       0.67294    0.49708    0.79515   1.00
C6       0.64372    0.47988    0.77528   1.00
C6       0.66462    0.53540    0.79758   1.00
C6       0.61657    0.50757    0.76457   1.00
C6       0.62987    0.54289    0.77874   1.00
H3       0.64226    0.44901    0.76869   1.00
H3       0.68291    0.55691    0.81178   1.00
H3       0.59002    0.50259    0.74828   1.00
H3       0.61585    0.57097    0.77566   1.00
C4       0.75000    0.75010    0.52085   1.00
C4       0.75000    0.74990    0.47915   1.00
C3       0.77506    0.77423    0.54292   1.00
C3       0.72082    0.76958    0.45775   1.00
C3       0.72432    0.72562    0.54184   1.00
C3a      0.77968    0.73034    0.45737   1.00
C2       0.74916    0.74875    0.60517   1.00
C2       0.75054    0.75137    0.39483   1.00
C3       0.77460    0.77350    0.58434   1.00
C3       0.72115    0.77028    0.41641   1.00
C3       0.72404    0.72484    0.58320   1.00
C3       0.77955    0.73149    0.41585   1.00
H1       0.79505    0.79367    0.52808   1.00
H1       0.69777    0.78477    0.47315   1.00
H1       0.79427    0.79235    0.60032   1.00
H1       0.69830    0.78578    0.40105   1.00
H1       0.70431    0.70527    0.59821   1.00
H1       0.80207    0.71647    0.39957   1.00
C5       0.81146    0.70726    0.47761   1.00
H1       0.70508    0.70621    0.52599   1.00
H2       0.83401    0.69745    0.45646   1.00
H2       0.82662    0.72637    0.49897   1.00
N1       0.79515    0.67294    0.49708   1.00
C6       0.77528    0.64372    0.47988   1.00
C6       0.79758    0.66462    0.53540   1.00
C6       0.76457    0.61657    0.50757   1.00
C6       0.77874    0.62987    0.54289   1.00
H3       0.76869    0.64226    0.44901   1.00
H3       0.81178    0.68291    0.55691   1.00
H3       0.74828    0.59002    0.50259   1.00
H3       0.77566    0.61585    0.57097   1.00
C4       0.25000    0.24990    0.97915   1.00
C4       0.25000    0.25010    1.02085   1.00
C3       0.27506    0.22577    0.95708   1.00
C3       0.22082    0.23042    1.04225   1.00
C3       0.22432    0.27438    0.95816   1.00
C3a      0.27968    0.26966    1.04263   1.00
C2       0.24916    0.25125    0.89483   1.00
C2       0.25054    0.24863    1.10517   1.00
C3       0.27460    0.22650    0.91566   1.00
C3       0.22115    0.22972    1.08359   1.00
C3       0.22404    0.27516    0.91680   1.00
C3       0.27955    0.26851    1.08415   1.00
H1       0.29505    0.20633    0.97192   1.00
H1       0.19777    0.21523    1.02685   1.00
H1       0.29427    0.20765    0.89968   1.00
H1       0.19830    0.21422    1.09895   1.00
H1       0.20431    0.29473    0.90179   1.00
H1       0.30207    0.28353    1.10043   1.00
C5       0.31146    0.29274    1.02239   1.00
H1       0.20508    0.29379    0.97401   1.00
H2       0.33401    0.30255    1.04354   1.00
H2       0.32662    0.27363    1.00103   1.00
N1       0.29515    0.32706    1.00292   1.00
C6       0.27528    0.35628    1.02012   1.00
C6       0.29758    0.33538    0.96460   1.00
C6       0.26457    0.38343    0.99243   1.00
C6       0.27874    0.37013    0.95711   1.00
H3       0.26869    0.35774    1.05099   1.00
H3       0.31178    0.31709    0.94309   1.00
H3       0.24828    0.40998    0.99741   1.00
H3       0.27566    0.38415    0.92903   1.00
C4       0.24990    0.47915    0.75000   1.00
C4       0.25010    0.52085    0.75000   1.00
C3       0.22577    0.45708    0.77506   1.00
C3       0.23042    0.54225    0.72082   1.00
C3       0.27438    0.45816    0.72432   1.00
C3a      0.26966    0.54263    0.77968   1.00
C2       0.25125    0.39483    0.74916   1.00
C2       0.24863    0.60517    0.75054   1.00
C3       0.22650    0.41566    0.77460   1.00
C3       0.22972    0.58359    0.72115   1.00
C3       0.27516    0.41680    0.72404   1.00
C3       0.26851    0.58415    0.77955   1.00
H1       0.20633    0.47192    0.79505   1.00
H1       0.21523    0.52685    0.69777   1.00
H1       0.20765    0.39968    0.79427   1.00
H1       0.21422    0.59895    0.69830   1.00
H1       0.29473    0.40179    0.70431   1.00
H1       0.28353    0.60043    0.80207   1.00
C5       0.29274    0.52239    0.81146   1.00
H1       0.29379    0.47401    0.70508   1.00
H2       0.30255    0.54354    0.83401   1.00
H2       0.27363    0.50103    0.82662   1.00
N1       0.32706    0.50292    0.79515   1.00
C6       0.35628    0.52012    0.77528   1.00
C6       0.33538    0.46460    0.79758   1.00
C6       0.38343    0.49243    0.76457   1.00
C6       0.37013    0.45711    0.77874   1.00
H3       0.35774    0.55099    0.76869   1.00
H3       0.31709    0.44309    0.81178   1.00
H3       0.40998    0.49741    0.74828   1.00
H3       0.38415    0.42903    0.77566   1.00
C4       0.02085    0.25000    0.75010   1.00
C4       -0.02085   0.25000    0.74990   1.00
C3       0.04292    0.27506    0.77423   1.00
C3       -0.04225   0.22082    0.76958   1.00
C3       0.04184    0.22432    0.72562   1.00
C3a      -0.04263   0.27968    0.73034   1.00
C2       0.10517    0.24916    0.74875   1.00
C2       -0.10517   0.25054    0.75137   1.00
C3       0.08434    0.27460    0.77350   1.00
C3       -0.08359   0.22115    0.77028   1.00
C3       0.08320    0.22404    0.72484   1.00
C3       -0.08415   0.27955    0.73149   1.00
H1       0.02808    0.29505    0.79367   1.00
H1       -0.02685   0.19777    0.78477   1.00
H1       0.10032    0.29427    0.79235   1.00
H1       -0.09895   0.19830    0.78578   1.00
H1       0.09821    0.20431    0.70527   1.00
H1       -0.10043   0.30207    0.71647   1.00
C5       -0.02239   0.31146    0.70726   1.00
H1       0.02599    0.20508    0.70621   1.00
H2       -0.04354   0.33401    0.69745   1.00
H2       -0.00103   0.32662    0.72637   1.00
N1       -0.00292   0.29515    0.67294   1.00
C6       -0.02012   0.27528    0.64372   1.00
C6       0.03540    0.29758    0.66462   1.00
C6       0.00757    0.26457    0.61657   1.00
C6       0.04289    0.27874    0.62987   1.00
H3       -0.05099   0.26869    0.64226   1.00
H3       0.05691    0.31178    0.68291   1.00
H3       0.00259    0.24828    0.59002   1.00
H3       0.07097    0.27566    0.61585   1.00
C4       0.47915    0.25000    0.74990   1.00
C4       0.52085    0.25000    0.75010   1.00
C3       0.45708    0.27506    0.72577   1.00
C3       0.54225    0.22082    0.73042   1.00
C3       0.45816    0.22432    0.77438   1.00
C3a      0.54263    0.27968    0.76966   1.00
C2       0.39483    0.24916    0.75125   1.00
C2       0.60517    0.25054    0.74863   1.00
C3       0.41566    0.27460    0.72650   1.00
C3       0.58359    0.22115    0.72972   1.00
C3       0.41680    0.22404    0.77516   1.00
C3       0.58415    0.27955    0.76851   1.00
H1       0.47192    0.29505    0.70633   1.00
H1       0.52685    0.19777    0.71523   1.00
H1       0.39968    0.29427    0.70765   1.00
H1       0.59895    0.19830    0.71422   1.00
H1       0.40179    0.20431    0.79473   1.00
H1       0.60043    0.30207    0.78353   1.00
C5       0.52239    0.31146    0.79274   1.00
H1       0.47401    0.20508    0.79379   1.00
H2       0.54354    0.33401    0.80255   1.00
H2       0.50103    0.32662    0.77363   1.00
N1       0.50292    0.29515    0.82706   1.00
C6       0.52012    0.27528    0.85628   1.00
C6       0.46460    0.29758    0.83538   1.00
C6       0.49243    0.26457    0.88343   1.00
C6       0.45711    0.27874    0.87013   1.00
H3       0.55099    0.26869    0.85774   1.00
H3       0.44309    0.31178    0.81709   1.00
H3       0.49741    0.24828    0.90998   1.00
H3       0.42903    0.27566    0.88415   1.00
C4       0.25010    0.02085    0.75000   1.00
C4       0.24990    -0.02085   0.75000   1.00
C3       0.27423    0.04292    0.77506   1.00
C3       0.26958    -0.04225   0.72082   1.00
C3       0.22562    0.04184    0.72432   1.00
C3a      0.23034    -0.04263   0.77968   1.00
C2       0.24875    0.10517    0.74916   1.00
C2       0.25137    -0.10517   0.75054   1.00
C3       0.27350    0.08434    0.77460   1.00
C3       0.27028    -0.08359   0.72115   1.00
C3       0.22484    0.08320    0.72404   1.00
C3       0.23149    -0.08415   0.77955   1.00
H1       0.29367    0.02808    0.79505   1.00
H1       0.28477    -0.02685   0.69777   1.00
H1       0.29235    0.10032    0.79427   1.00
H1       0.28578    -0.09895   0.69830   1.00
H1       0.20527    0.09821    0.70431   1.00
H1       0.21647    -0.10043   0.80207   1.00
C5       0.20726    -0.02239   0.81146   1.00
H1       0.20621    0.02599    0.70508   1.00
H2       0.19745    -0.04354   0.83401   1.00
H2       0.22637    -0.00103   0.82662   1.00
N1       0.17294    -0.00292   0.79515   1.00
C6       0.14372    -0.02012   0.77528   1.00
C6       0.16462    0.03540    0.79758   1.00
C6       0.11657    0.00757    0.76457   1.00
C6       0.12987    0.04289    0.77874   1.00
H3       0.14226    -0.05099   0.76869   1.00
H3       0.18291    0.05691    0.81178   1.00
H3       0.09002    0.00259    0.74828   1.00
H3       0.11585    0.07097    0.77566   1.00
C4       0.25000    0.25010    0.52085   1.00
C4       0.25000    0.24990    0.47915   1.00
C3       0.27506    0.27423    0.54292   1.00
C3       0.22082    0.26958    0.45775   1.00
C3       0.22432    0.22562    0.54184   1.00
C3a      0.27968    0.23034    0.45737   1.00
C2       0.24916    0.24875    0.60517   1.00
C2       0.25054    0.25137    0.39483   1.00
C3       0.27460    0.27350    0.58434   1.00
C3       0.22115    0.27028    0.41641   1.00
C3       0.22404    0.22484    0.58320   1.00
C3       0.27955    0.23149    0.41585   1.00
H1       0.29505    0.29367    0.52808   1.00
H1       0.19777    0.28477    0.47315   1.00
H1       0.29427    0.29235    0.60032   1.00
H1       0.19830    0.28578    0.40105   1.00
H1       0.20431    0.20527    0.59821   1.00
H1       0.30207    0.21647    0.39957   1.00
C5       0.31146    0.20726    0.47761   1.00
H1       0.20508    0.20621    0.52599   1.00
H2       0.33401    0.19745    0.45646   1.00
H2       0.32662    0.22637    0.49897   1.00
N1       0.29515    0.17294    0.49708   1.00
C6       0.27528    0.14372    0.47988   1.00
C6       0.29758    0.16462    0.53540   1.00
C6       0.26457    0.11657    0.50757   1.00
C6       0.27874    0.12987    0.54289   1.00
H3       0.26869    0.14226    0.44901   1.00
H3       0.31178    0.18291    0.55691   1.00
H3       0.24828    0.09002    0.50259   1.00
H3       0.27566    0.11585    0.57097   1.00
C4       0.25000    0.74990    0.47915   1.00
C4       0.25000    0.75010    0.52085   1.00
C3       0.27506    0.72577    0.45708   1.00
C3       0.22082    0.73042    0.54225   1.00
C3       0.22432    0.77438    0.45816   1.00
C3a      0.27968    0.76966    0.54263   1.00
C2       0.24916    0.75125    0.39483   1.00
C2       0.25054    0.74863    0.60517   1.00
C3       0.27460    0.72650    0.41566   1.00
C3       0.22115    0.72972    0.58359   1.00
C3       0.22404    0.77516    0.41680   1.00
C3       0.27955    0.76851    0.58415   1.00
H1       0.29505    0.70633    0.47192   1.00
H1       0.19777    0.71523    0.52685   1.00
H1       0.29427    0.70765    0.39968   1.00
H1       0.19830    0.71422    0.59895   1.00
H1       0.20431    0.79473    0.40179   1.00
H1       0.30207    0.78353    0.60043   1.00
C5       0.31146    0.79274    0.52239   1.00
H1       0.20508    0.79379    0.47401   1.00
H2       0.33401    0.80255    0.54354   1.00
H2       0.32662    0.77363    0.50103   1.00
N1       0.29515    0.82706    0.50292   1.00
C6       0.27528    0.85628    0.52012   1.00
C6       0.29758    0.83538    0.46460   1.00
C6       0.26457    0.88343    0.49243   1.00
C6       0.27874    0.87013    0.45711   1.00
H3       0.26869    0.85774    0.55099   1.00
H3       0.31178    0.81709    0.44309   1.00
H3       0.24828    0.90998    0.49741   1.00
H3       0.27566    0.88415    0.42903   1.00
C4       0.24990    0.97915    0.25000   1.00
C4       0.25010    1.02085    0.25000   1.00
C3       0.22577    0.95708    0.27506   1.00
C3       0.23042    1.04225    0.22082   1.00
C3       0.27438    0.95816    0.22432   1.00
C3a      0.26966    1.04263    0.27968   1.00
C2       0.25125    0.89483    0.24916   1.00
C2       0.24863    1.10517    0.25054   1.00
C3       0.22650    0.91566    0.27460   1.00
C3       0.22972    1.08359    0.22115   1.00
C3       0.27516    0.91680    0.22404   1.00
C3       0.26851    1.08415    0.27955   1.00
H1       0.20633    0.97192    0.29505   1.00
H1       0.21523    1.02685    0.19777   1.00
H1       0.20765    0.89968    0.29427   1.00
H1       0.21422    1.09895    0.19830   1.00
H1       0.29473    0.90179    0.20431   1.00
H1       0.28353    1.10043    0.30207   1.00
C5       0.29274    1.02239    0.31146   1.00
H1       0.29379    0.97401    0.20508   1.00
H2       0.30255    1.04354    0.33401   1.00
H2       0.27363    1.00103    0.32662   1.00
N1       0.32706    1.00292    0.29515   1.00
C6       0.35628    1.02012    0.27528   1.00
C6       0.33538    0.96460    0.29758   1.00
C6       0.38343    0.99243    0.26457   1.00
C6       0.37013    0.95711    0.27874   1.00
H3       0.35774    1.05099    0.26869   1.00
H3       0.31709    0.94309    0.31178   1.00
H3       0.40998    0.99741    0.24828   1.00
H3       0.38415    0.92903    0.27566   1.00
C4       0.02085    0.75000    0.25010   1.00
C4       -0.02085   0.75000    0.24990   1.00
C3       0.04292    0.77506    0.27423   1.00
C3       -0.04225   0.72082    0.26958   1.00
C3       0.04184    0.72432    0.22562   1.00
C3a      -0.04263   0.77968    0.23034   1.00
C2       0.10517    0.74916    0.24875   1.00
C2       -0.10517   0.75054    0.25137   1.00
C3       0.08434    0.77460    0.27350   1.00
C3       -0.08359   0.72115    0.27028   1.00
C3       0.08320    0.72404    0.22484   1.00
C3       -0.08415   0.77955    0.23149   1.00
H1       0.02808    0.79505    0.29367   1.00
H1       -0.02685   0.69777    0.28477   1.00
H1       0.10032    0.79427    0.29235   1.00
H1       -0.09895   0.69830    0.28578   1.00
H1       0.09821    0.70431    0.20527   1.00
H1       -0.10043   0.80207    0.21647   1.00
C5       -0.02239   0.81146    0.20726   1.00
H1       0.02599    0.70508    0.20621   1.00
H2       -0.04354   0.83401    0.19745   1.00
H2       -0.00103   0.82662    0.22637   1.00
N1       -0.00292   0.79515    0.17294   1.00
C6       -0.02012   0.77528    0.14372   1.00
C6       0.03540    0.79758    0.16462   1.00
C6       0.00757    0.76457    0.11657   1.00
C6       0.04289    0.77874    0.12987   1.00
H3       -0.05099   0.76869    0.14226   1.00
H3       0.05691    0.81178    0.18291   1.00
H3       0.00259    0.74828    0.09002   1.00
H3       0.07097    0.77566    0.11585   1.00
C4       0.47915    0.75000    0.24990   1.00
C4       0.52085    0.75000    0.25010   1.00
C3       0.45708    0.77506    0.22577   1.00
C3       0.54225    0.72082    0.23042   1.00
C3       0.45816    0.72432    0.27438   1.00
C3a      0.54263    0.77968    0.26966   1.00
C2       0.39483    0.74916    0.25125   1.00
C2       0.60517    0.75054    0.24863   1.00
C3       0.41566    0.77460    0.22650   1.00
C3       0.58359    0.72115    0.22972   1.00
C3       0.41680    0.72404    0.27516   1.00
C3       0.58415    0.77955    0.26851   1.00
H1       0.47192    0.79505    0.20633   1.00
H1       0.52685    0.69777    0.21523   1.00
H1       0.39968    0.79427    0.20765   1.00
H1       0.59895    0.69830    0.21422   1.00
H1       0.40179    0.70431    0.29473   1.00
H1       0.60043    0.80207    0.28353   1.00
C5       0.52239    0.81146    0.29274   1.00
H1       0.47401    0.70508    0.29379   1.00
H2       0.54354    0.83401    0.30255   1.00
H2       0.50103    0.82662    0.27363   1.00
N1       0.50292    0.79515    0.32706   1.00
C6       0.52012    0.77528    0.35628   1.00
C6       0.46460    0.79758    0.33538   1.00
C6       0.49243    0.76457    0.38343   1.00
C6       0.45711    0.77874    0.37013   1.00
H3       0.55099    0.76869    0.35774   1.00
H3       0.44309    0.81178    0.31709   1.00
H3       0.49741    0.74828    0.40998   1.00
H3       0.42903    0.77566    0.38415   1.00
C4       0.25010    0.52085    0.25000   1.00
C4       0.24990    0.47915    0.25000   1.00
C3       0.27423    0.54292    0.27506   1.00
C3       0.26958    0.45775    0.22082   1.00
C3       0.22562    0.54184    0.22432   1.00
C3a      0.23034    0.45737    0.27968   1.00
C2       0.24875    0.60517    0.24916   1.00
C2       0.25137    0.39483    0.25054   1.00
C3       0.27350    0.58434    0.27460   1.00
C3       0.27028    0.41641    0.22115   1.00
C3       0.22484    0.58320    0.22404   1.00
C3       0.23149    0.41585    0.27955   1.00
H1       0.29367    0.52808    0.29505   1.00
H1       0.28477    0.47315    0.19777   1.00
H1       0.29235    0.60032    0.29427   1.00
H1       0.28578    0.40105    0.19830   1.00
H1       0.20527    0.59821    0.20431   1.00
H1       0.21647    0.39957    0.30207   1.00
C5       0.20726    0.47761    0.31146   1.00
H1       0.20621    0.52599    0.20508   1.00
H2       0.19745    0.45646    0.33401   1.00
H2       0.22637    0.49897    0.32662   1.00
N1       0.17294    0.49708    0.29515   1.00
C6       0.14372    0.47988    0.27528   1.00
C6       0.16462    0.53540    0.29758   1.00
C6       0.11657    0.50757    0.26457   1.00
C6       0.12987    0.54289    0.27874   1.00
H3       0.14226    0.44901    0.26869   1.00
H3       0.18291    0.55691    0.31178   1.00
H3       0.09002    0.50259    0.24828   1.00
H3       0.11585    0.57097    0.27566   1.00
C4       0.25000    0.75010    0.02085   1.00
C4       0.25000    0.74990    -0.02085   1.00
C3       0.27506    0.77423    0.04292   1.00
C3       0.22082    0.76958    -0.04225   1.00
C3       0.22432    0.72562    0.04184   1.00
C3a      0.27968    0.73034    -0.04263   1.00
C2       0.24916    0.74875    0.10517   1.00
C2       0.25054    0.75137    -0.10517   1.00
C3       0.27460    0.77350    0.08434   1.00
C3       0.22115    0.77028    -0.08359   1.00
C3       0.22404    0.72484    0.08320   1.00
C3       0.27955    0.73149    -0.08415   1.00
H1       0.29505    0.79367    0.02808   1.00
H1       0.19777    0.78477    -0.02685   1.00
H1       0.29427    0.79235    0.10032   1.00
H1       0.19830    0.78578    -0.09895   1.00
H1       0.20431    0.70527    0.09821   1.00
H1       0.30207    0.71647    -0.10043   1.00
C5       0.31146    0.70726    -0.02239   1.00
H1       0.20508    0.70621    0.02599   1.00
H2       0.33401    0.69745    -0.04354   1.00
H2       0.32662    0.72637    -0.00103   1.00
N1       0.29515    0.67294    -0.00292   1.00
C6       0.27528    0.64372    -0.02012   1.00
C6       0.29758    0.66462    0.03540   1.00
C6       0.26457    0.61657    0.00757   1.00
C6       0.27874    0.62987    0.04289   1.00
H3       0.26869    0.64226    -0.05099   1.00
H3       0.31178    0.68291    0.05691   1.00
H3       0.24828    0.59002    0.00259   1.00
H3       0.27566    0.61585    0.07097   1.00
C4       0.75000    0.24990    0.47915   1.00
C4       0.75000    0.25010    0.52085   1.00
C3       0.77506    0.22577    0.45708   1.00
C3       0.72082    0.23042    0.54225   1.00
C3       0.72432    0.27438    0.45816   1.00
C3a      0.77968    0.26966    0.54263   1.00
C2       0.74916    0.25125    0.39483   1.00
C2       0.75054    0.24863    0.60517   1.00
C3       0.77460    0.22650    0.41566   1.00
C3       0.72115    0.22972    0.58359   1.00
C3       0.72404    0.27516    0.41680   1.00
C3       0.77955    0.26851    0.58415   1.00
H1       0.79505    0.20633    0.47192   1.00
H1       0.69777    0.21523    0.52685   1.00
H1       0.79427    0.20765    0.39968   1.00
H1       0.69830    0.21422    0.59895   1.00
H1       0.70431    0.29473    0.40179   1.00
H1       0.80207    0.28353    0.60043   1.00
C5       0.81146    0.29274    0.52239   1.00
H1       0.70508    0.29379    0.47401   1.00
H2       0.83401    0.30255    0.54354   1.00
H2       0.82662    0.27363    0.50103   1.00
N1       0.79515    0.32706    0.50292   1.00
C6       0.77528    0.35628    0.52012   1.00
C6       0.79758    0.33538    0.46460   1.00
C6       0.76457    0.38343    0.49243   1.00
C6       0.77874    0.37013    0.45711   1.00
H3       0.76869    0.35774    0.55099   1.00
H3       0.81178    0.31709    0.44309   1.00
H3       0.74828    0.40998    0.49741   1.00
H3       0.77566    0.38415    0.42903   1.00
C4       0.74990    0.47915    0.25000   1.00
C4       0.75010    0.52085    0.25000   1.00
C3       0.72577    0.45708    0.27506   1.00
C3       0.73042    0.54225    0.22082   1.00
C3       0.77438    0.45816    0.22432   1.00
C3a      0.76966    0.54263    0.27968   1.00
C2       0.75125    0.39483    0.24916   1.00
C2       0.74863    0.60517    0.25054   1.00
C3       0.72650    0.41566    0.27460   1.00
C3       0.72972    0.58359    0.22115   1.00
C3       0.77516    0.41680    0.22404   1.00
C3       0.76851    0.58415    0.27955   1.00
H1       0.70633    0.47192    0.29505   1.00
H1       0.71523    0.52685    0.19777   1.00
H1       0.70765    0.39968    0.29427   1.00
H1       0.71422    0.59895    0.19830   1.00
H1       0.79473    0.40179    0.20431   1.00
H1       0.78353    0.60043    0.30207   1.00
C5       0.79274    0.52239    0.31146   1.00
H1       0.79379    0.47401    0.20508   1.00
H2       0.80255    0.54354    0.33401   1.00
H2       0.77363    0.50103    0.32662   1.00
N1       0.82706    0.50292    0.29515   1.00
C6       0.85628    0.52012    0.27528   1.00
C6       0.83538    0.46460    0.29758   1.00
C6       0.88343    0.49243    0.26457   1.00
C6       0.87013    0.45711    0.27874   1.00
H3       0.85774    0.55099    0.26869   1.00
H3       0.81709    0.44309    0.31178   1.00
H3       0.90998    0.49741    0.24828   1.00
H3       0.88415    0.42903    0.27566   1.00
C4       0.52085    0.25000    0.25010   1.00
C4       0.47915    0.25000    0.24990   1.00
C3       0.54292    0.27506    0.27423   1.00
C3       0.45775    0.22082    0.26958   1.00
C3       0.54184    0.22432    0.22562   1.00
C3a      0.45737    0.27968    0.23034   1.00
C2       0.60517    0.24916    0.24875   1.00
C2       0.39483    0.25054    0.25137   1.00
C3       0.58434    0.27460    0.27350   1.00
C3       0.41641    0.22115    0.27028   1.00
C3       0.58320    0.22404    0.22484   1.00
C3       0.41585    0.27955    0.23149   1.00
H1       0.52808    0.29505    0.29367   1.00
H1       0.47315    0.19777    0.28477   1.00
H1       0.60032    0.29427    0.29235   1.00
H1       0.40105    0.19830    0.28578   1.00
H1       0.59821    0.20431    0.20527   1.00
H1       0.39957    0.30207    0.21647   1.00
C5       0.47761    0.31146    0.20726   1.00
H1       0.52599    0.20508    0.20621   1.00
H2       0.45646    0.33401    0.19745   1.00
H2       0.49897    0.32662    0.22637   1.00
N1       0.49708    0.29515    0.17294   1.00
C6       0.47988    0.27528    0.14372   1.00
C6       0.53540    0.29758    0.16462   1.00
C6       0.50757    0.26457    0.11657   1.00
C6       0.54289    0.27874    0.12987   1.00
H3       0.44901    0.26869    0.14226   1.00
H3       0.55691    0.31178    0.18291   1.00
H3       0.50259    0.24828    0.09002   1.00
H3       0.57097    0.27566    0.11585   1.00
C4       0.97915    0.25000    0.24990   1.00
C4       1.02085    0.25000    0.25010   1.00
C3       0.95708    0.27506    0.22577   1.00
C3       1.04225    0.22082    0.23042   1.00
C3       0.95816    0.22432    0.27438   1.00
C3a      1.04263    0.27968    0.26966   1.00
C2       0.89483    0.24916    0.25125   1.00
C2       1.10517    0.25054    0.24863   1.00
C3       0.91566    0.27460    0.22650   1.00
C3       1.08359    0.22115    0.22972   1.00
C3       0.91680    0.22404    0.27516   1.00
C3       1.08415    0.27955    0.26851   1.00
H1       0.97192    0.29505    0.20633   1.00
H1       1.02685    0.19777    0.21523   1.00
H1       0.89968    0.29427    0.20765   1.00
H1       1.09895    0.19830    0.21422   1.00
H1       0.90179    0.20431    0.29473   1.00
H1       1.10043    0.30207    0.28353   1.00
C5       1.02239    0.31146    0.29274   1.00
H1       0.97401    0.20508    0.29379   1.00
H2       1.04354    0.33401    0.30255   1.00
H2       1.00103    0.32662    0.27363   1.00
N1       1.00292    0.29515    0.32706   1.00
C6       1.02012    0.27528    0.35628   1.00
C6       0.96460    0.29758    0.33538   1.00
C6       0.99243    0.26457    0.38343   1.00
C6       0.95711    0.27874    0.37013   1.00
H3       1.05099    0.26869    0.35774   1.00
H3       0.94309    0.31178    0.31709   1.00
H3       0.99741    0.24828    0.40998   1.00
H3       0.92903    0.27566    0.38415   1.00
C4       0.75010    0.02085    0.25000   1.00
C4       0.74990    -0.02085   0.25000   1.00
C3       0.77423    0.04292    0.27506   1.00
C3       0.76958    -0.04225   0.22082   1.00
C3       0.72562    0.04184    0.22432   1.00
C3a      0.73034    -0.04263   0.27968   1.00
C2       0.74875    0.10517    0.24916   1.00
C2       0.75137    -0.10517   0.25054   1.00
C3       0.77350    0.08434    0.27460   1.00
C3       0.77028    -0.08359   0.22115   1.00
C3       0.72484    0.08320    0.22404   1.00
C3       0.73149    -0.08415   0.27955   1.00
H1       0.79367    0.02808    0.29505   1.00
H1       0.78477    -0.02685   0.19777   1.00
H1       0.79235    0.10032    0.29427   1.00
H1       0.78578    -0.09895   0.19830   1.00
H1       0.70527    0.09821    0.20431   1.00
H1       0.71647    -0.10043   0.30207   1.00
C5       0.70726    -0.02239   0.31146   1.00
H1       0.70621    0.02599    0.20508   1.00
H2       0.69745    -0.04354   0.33401   1.00
H2       0.72637    -0.00103   0.32662   1.00
N1       0.67294    -0.00292   0.29515   1.00
C6       0.64372    -0.02012   0.27528   1.00
C6       0.66462    0.03540    0.29758   1.00
C6       0.61657    0.00757    0.26457   1.00
C6       0.62987    0.04289    0.27874   1.00
H3       0.64226    -0.05099   0.26869   1.00
H3       0.68291    0.05691    0.31178   1.00
H3       0.59002    0.00259    0.24828   1.00
H3       0.61585    0.07097    0.27566   1.00
C4       0.75000    0.25010    0.02085   1.00
C4       0.75000    0.24990    -0.02085   1.00
C3       0.77506    0.27423    0.04292   1.00
C3       0.72082    0.26958    -0.04225   1.00
C3       0.72432    0.22562    0.04184   1.00
C3a      0.77968    0.23034    -0.04263   1.00
C2       0.74916    0.24875    0.10517   1.00
C2       0.75054    0.25137    -0.10517   1.00
C3       0.77460    0.27350    0.08434   1.00
C3       0.72115    0.27028    -0.08359   1.00
C3       0.72404    0.22484    0.08320   1.00
C3       0.77955    0.23149    -0.08415   1.00
H1       0.79505    0.29367    0.02808   1.00
H1       0.69777    0.28477    -0.02685   1.00
H1       0.79427    0.29235    0.10032   1.00
H1       0.69830    0.28578    -0.09895   1.00
H1       0.70431    0.20527    0.09821   1.00
H1       0.80207    0.21647    -0.10043   1.00
C5       0.81146    0.20726    -0.02239   1.00
H1       0.70508    0.20621    0.02599   1.00
H2       0.83401    0.19745    -0.04354   1.00
H2       0.82662    0.22637    -0.00103   1.00
N1       0.79515    0.17294    -0.00292   1.00
C6       0.77528    0.14372    -0.02012   1.00
C6       0.79758    0.16462    0.03540   1.00
C6       0.76457    0.11657    0.00757   1.00
C6       0.77874    0.12987    0.04289   1.00
H3       0.76869    0.14226    -0.05099   1.00
H3       0.81178    0.18291    0.05691   1.00
H3       0.74828    0.09002    0.00259   1.00
H3       0.77566    0.11585    0.07097   1.00
C4       1.00000    0.99990    1.22915   1.00
C4       1.00000    1.00010    1.27085   1.00
C3       1.02506    0.97577    1.20708   1.00
C3       0.97082    0.98042    1.29225   1.00
C3       0.97432    1.02438    1.20816   1.00
C3a      1.02968    1.01966    1.29263   1.00
C2       0.99916    1.00125    1.14483   1.00
C2       1.00054    0.99863    1.35517   1.00
C3       1.02460    0.97650    1.16566   1.00
C3       0.97115    0.97972    1.33359   1.00
C3       0.97404    1.02516    1.16680   1.00
C3       1.02955    1.01851    1.33415   1.00
H1       1.04505    0.95633    1.22192   1.00
H1       0.94777    0.96523    1.27685   1.00
H1       1.04427    0.95765    1.14968   1.00
H1       0.94830    0.96422    1.34895   1.00
H1       0.95431    1.04473    1.15179   1.00
H1       1.05207    1.03353    1.35043   1.00
C5       1.06146    1.04274    1.27239   1.00
H1       0.95508    1.04379    1.22401   1.00
H2       1.08401    1.05255    1.29354   1.00
H2       1.07662    1.02363    1.25103   1.00
N1       1.04515    1.07706    1.25292   1.00
C6       1.02528    1.10628    1.27012   1.00
C6       1.04758    1.08538    1.21460   1.00
C6       1.01457    1.13343    1.24243   1.00
C6       1.02874    1.12013    1.20711   1.00
H3       1.01869    1.10774    1.30099   1.00
H3       1.06178    1.06709    1.19309   1.00
H3       0.99828    1.15998    1.24741   1.00
H3       1.02566    1.13415    1.17903   1.00
C4       0.99990    1.22915    1.00000   1.00
C4       1.00010    1.27085    1.00000   1.00
C3       0.97577    1.20708    1.02506   1.00
C3       0.98042    1.29225    0.97082   1.00
C3       1.02438    1.20816    0.97432   1.00
C3a      1.01966    1.29263    1.02968   1.00
C2       1.00125    1.14483    0.99916   1.00
C2       0.99863    1.35517    1.00054   1.00
C3       0.97650    1.16566    1.02460   1.00
C3       0.97972    1.33359    0.97115   1.00
C3       1.02516    1.16680    0.97404   1.00
C3       1.01851    1.33415    1.02955   1.00
H1       0.95633    1.22192    1.04505   1.00
H1       0.96523    1.27685    0.94777   1.00
H1       0.95765    1.14968    1.04427   1.00
H1       0.96422    1.34895    0.94830   1.00
H1       1.04473    1.15179    0.95431   1.00
H1       1.03353    1.35043    1.05207   1.00
C5       1.04274    1.27239    1.06146   1.00
H1       1.04379    1.22401    0.95508   1.00
H2       1.05255    1.29354    1.08401   1.00
H2       1.02363    1.25103    1.07662   1.00
N1       1.07706    1.25292    1.04515   1.00
C6       1.10628    1.27012    1.02528   1.00
C6       1.08538    1.21460    1.04758   1.00
C6       1.13343    1.24243    1.01457   1.00
C6       1.12013    1.20711    1.02874   1.00
H3       1.10774    1.30099    1.01869   1.00
H3       1.06709    1.19309    1.06178   1.00
H3       1.15998    1.24741    0.99828   1.00
H3       1.13415    1.17903    1.02566   1.00
C4       0.77085    1.00000    1.00010   1.00
C4       0.72915    1.00000    0.99990   1.00
C3       0.79292    1.02506    1.02423   1.00
C3       0.70775    0.97082    1.01958   1.00
C3       0.79184    0.97432    0.97562   1.00
C3a      0.70737    1.02968    0.98034   1.00
C2       0.85517    0.99916    0.99875   1.00
C2       0.64483    1.00054    1.00137   1.00
C3       0.83434    1.02460    1.02350   1.00
C3       0.66641    0.97115    1.02028   1.00
C3       0.83320    0.97404    0.97484   1.00
C3       0.66585    1.02955    0.98149   1.00
H1       0.77808    1.04505    1.04367   1.00
H1       0.72315    0.94777    1.03477   1.00
H1       0.85032    1.04427    1.04235   1.00
H1       0.65105    0.94830    1.03578   1.00
H1       0.84821    0.95431    0.95527   1.00
H1       0.64957    1.05207    0.96647   1.00
C5       0.72761    1.06146    0.95726   1.00
H1       0.77599    0.95508    0.95621   1.00
H2       0.70646    1.08401    0.94745   1.00
H2       0.74897    1.07662    0.97637   1.00
N1       0.74708    1.04515    0.92294   1.00
C6       0.72988    1.02528    0.89372   1.00
C6       0.78540    1.04758    0.91462   1.00
C6       0.75757    1.01457    0.86657   1.00
C6       0.79289    1.02874    0.87987   1.00
H3       0.69901    1.01869    0.89226   1.00
H3       0.80691    1.06178    0.93291   1.00
H3       0.75259    0.99828    0.84002   1.00
H3       0.82097    1.02566    0.86585   1.00
C4       1.22915    1.00000    0.99990   1.00
C4       1.27085    1.00000    1.00010   1.00
C3       1.20708    1.02506    0.97577   1.00
C3       1.29225    0.97082    0.98042   1.00
C3       1.20816    0.97432    1.02438   1.00
C3a      1.29263    1.02968    1.01966   1.00
C2       1.14483    0.99916    1.00125   1.00
C2       1.35517    1.00054    0.99863   1.00
C3       1.16566    1.02460    0.97650   1.00
C3       1.33359    0.97115    0.97972   1.00
C3       1.16680    0.97404    1.02516   1.00
C3       1.33415    1.02955    1.01851   1.00
H1       1.22192    1.04505    0.95633   1.00
H1       1.27685    0.94777    0.96523   1.00
H1       1.14968    1.04427    0.95765   1.00
H1       1.34895    0.94830    0.96422   1.00
H1       1.15179    0.95431    1.04473   1.00
H1       1.35043    1.05207    1.03353   1.00
C5       1.27239    1.06146    1.04274   1.00
H1       1.22401    0.95508    1.04379   1.00
H2       1.29354    1.08401    1.05255   1.00
H2       1.25103    1.07662    1.02363   1.00
N1       1.25292    1.04515    1.07706   1.00
C6       1.27012    1.02528    1.10628   1.00
C6       1.21460    1.04758    1.08538   1.00
C6       1.24243    1.01457    1.13343   1.00
C6       1.20711    1.02874    1.12013   1.00
H3       1.30099    1.01869    1.10774   1.00
H3       1.19309    1.06178    1.06709   1.00
H3       1.24741    0.99828    1.15998   1.00
H3       1.17903    1.02566    1.13415   1.00
C4       1.00010    0.77085    1.00000   1.00
C4       0.99990    0.72915    1.00000   1.00
C3       1.02423    0.79292    1.02506   1.00
C3       1.01958    0.70775    0.97082   1.00
C3       0.97562    0.79184    0.97432   1.00
C3a      0.98034    0.70737    1.02968   1.00
C2       0.99875    0.85517    0.99916   1.00
C2       1.00137    0.64483    1.00054   1.00
C3       1.02350    0.83434    1.02460   1.00
C3       1.02028    0.66641    0.97115   1.00
C3       0.97484    0.83320    0.97404   1.00
C3       0.98149    0.66585    1.02955   1.00
H1       1.04367    0.77808    1.04505   1.00
H1       1.03477    0.72315    0.94777   1.00
H1       1.04235    0.85032    1.04427   1.00
H1       1.03578    0.65105    0.94830   1.00
H1       0.95527    0.84821    0.95431   1.00
H1       0.96647    0.64957    1.05207   1.00
C5       0.95726    0.72761    1.06146   1.00
H1       0.95621    0.77599    0.95508   1.00
H2       0.94745    0.70646    1.08401   1.00
H2       0.97637    0.74897    1.07662   1.00
N1       0.92294    0.74708    1.04515   1.00
C6       0.89372    0.72988    1.02528   1.00
C6       0.91462    0.78540    1.04758   1.00
C6       0.86657    0.75757    1.01457   1.00
C6       0.87987    0.79289    1.02874   1.00
H3       0.89226    0.69901    1.01869   1.00
H3       0.93291    0.80691    1.06178   1.00
H3       0.84002    0.75259    0.99828   1.00
H3       0.86585    0.82097    1.02566   1.00
C4       1.00000    1.00010    0.77085   1.00
C4       1.00000    0.99990    0.72915   1.00
C3       1.02506    1.02423    0.79292   1.00
C3       0.97082    1.01958    0.70775   1.00
C3       0.97432    0.97562    0.79184   1.00
C3a      1.02968    0.98034    0.70737   1.00
C2       0.99916    0.99875    0.85517   1.00
C2       1.00054    1.00137    0.64483   1.00
C3       1.02460    1.02350    0.83434   1.00
C3       0.97115    1.02028    0.66641   1.00
C3       0.97404    0.97484    0.83320   1.00
C3       1.02955    0.98149    0.66585   1.00
H1       1.04505    1.04367    0.77808   1.00
H1       0.94777    1.03477    0.72315   1.00
H1       1.04427    1.04235    0.85032   1.00
H1       0.94830    1.03578    0.65105   1.00
H1       0.95431    0.95527    0.84821   1.00
H1       1.05207    0.96647    0.64957   1.00
C5       1.06146    0.95726    0.72761   1.00
H1       0.95508    0.95621    0.77599   1.00
H2       1.08401    0.94745    0.70646   1.00
H2       1.07662    0.97637    0.74897   1.00
N1       1.04515    0.92294    0.74708   1.00
C6       1.02528    0.89372    0.72988   1.00
C6       1.04758    0.91462    0.78540   1.00
C6       1.01457    0.86657    0.75757   1.00
C6       1.02874    0.87987    0.79289   1.00
H3       1.01869    0.89226    0.69901   1.00
H3       1.06178    0.93291    0.80691   1.00
H3       0.99828    0.84002    0.75259   1.00
H3       1.02566    0.86585    0.82097   1.00
C4       0.50000    0.49990    1.22915   1.00
C4       0.50000    0.50010    1.27085   1.00
C3       0.52506    0.47577    1.20708   1.00
C3       0.47082    0.48042    1.29225   1.00
C3       0.47432    0.52438    1.20816   1.00
C3a      0.52968    0.51966    1.29263   1.00
C2       0.49916    0.50125    1.14483   1.00
C2       0.50054    0.49863    1.35517   1.00
C3       0.52460    0.47650    1.16566   1.00
C3       0.47115    0.47972    1.33359   1.00
C3       0.47404    0.52516    1.16680   1.00
C3       0.52955    0.51851    1.33415   1.00
H1       0.54505    0.45633    1.22192   1.00
H1       0.44777    0.46523    1.27685   1.00
H1       0.54427    0.45765    1.14968   1.00
H1       0.44830    0.46422    1.34895   1.00
H1       0.45431    0.54473    1.15179   1.00
H1       0.55207    0.53353    1.35043   1.00
C5       0.56146    0.54274    1.27239   1.00
H1       0.45508    0.54379    1.22401   1.00
H2       0.58401    0.55255    1.29354   1.00
H2       0.57662    0.52363    1.25103   1.00
N1       0.54515    0.57706    1.25292   1.00
C6       0.52528    0.60628    1.27012   1.00
C6       0.54758    0.58538    1.21460   1.00
C6       0.51457    0.63343    1.24243   1.00
C6       0.52874    0.62013    1.20711   1.00
H3       0.51869    0.60774    1.30099   1.00
H3       0.56178    0.56709    1.19309   1.00
H3       0.49828    0.65998    1.24741   1.00
H3       0.52566    0.63415    1.17903   1.00
C4       0.49990    0.72915    1.00000   1.00
C4       0.50010    0.77085    1.00000   1.00
C3       0.47577    0.70708    1.02506   1.00
C3       0.48042    0.79225    0.97082   1.00
C3       0.52438    0.70816    0.97432   1.00
C3a      0.51966    0.79263    1.02968   1.00
C2       0.50125    0.64483    0.99916   1.00
C2       0.49863    0.85517    1.00054   1.00
C3       0.47650    0.66566    1.02460   1.00
C3       0.47972    0.83359    0.97115   1.00
C3       0.52516    0.66680    0.97404   1.00
C3       0.51851    0.83415    1.02955   1.00
H1       0.45633    0.72192    1.04505   1.00
H1       0.46523    0.77685    0.94777   1.00
H1       0.45765    0.64968    1.04427   1.00
H1       0.46422    0.84895    0.94830   1.00
H1       0.54473    0.65179    0.95431   1.00
H1       0.53353    0.85043    1.05207   1.00
C5       0.54274    0.77239    1.06146   1.00
H1       0.54379    0.72401    0.95508   1.00
H2       0.55255    0.79354    1.08401   1.00
H2       0.52363    0.75103    1.07662   1.00
N1       0.57706    0.75292    1.04515   1.00
C6       0.60628    0.77012    1.02528   1.00
C6       0.58538    0.71460    1.04758   1.00
C6       0.63343    0.74243    1.01457   1.00
C6       0.62013    0.70711    1.02874   1.00
H3       0.60774    0.80099    1.01869   1.00
H3       0.56709    0.69309    1.06178   1.00
H3       0.65998    0.74741    0.99828   1.00
H3       0.63415    0.67903    1.02566   1.00
C4       0.27085    0.50000    1.00010   1.00
C4       0.22915    0.50000    0.99990   1.00
C3       0.29292    0.52506    1.02423   1.00
C3       0.20775    0.47082    1.01958   1.00
C3       0.29184    0.47432    0.97562   1.00
C3a      0.20737    0.52968    0.98034   1.00
C2       0.35517    0.49916    0.99875   1.00
C2       0.14483    0.50054    1.00137   1.00
C3       0.33434    0.52460    1.02350   1.00
C3       0.16641    0.47115    1.02028   1.00
C3       0.33320    0.47404    0.97484   1.00
C3       0.16585    0.52955    0.98149   1.00
H1       0.27808    0.54505    1.04367   1.00
H1       0.22315    0.44777    1.03477   1.00
H1       0.35032    0.54427    1.04235   1.00
H1       0.15105    0.44830    1.03578   1.00
H1       0.34821    0.45431    0.95527   1.00
H1       0.14957    0.55207    0.96647   1.00
C5       0.22761    0.56146    0.95726   1.00
H1       0.27599    0.45508    0.95621   1.00
H2       0.20646    0.58401    0.94745   1.00
H2       0.24897    0.57662    0.97637   1.00
N1       0.24708    0.54515    0.92294   1.00
C6       0.22988    0.52528    0.89372   1.00
C6       0.28540    0.54758    0.91462   1.00
C6       0.25757    0.51457    0.86657   1.00
C6       0.29289    0.52874    0.87987   1.00
H3       0.19901    0.51869    0.89226   1.00
H3       0.30691    0.56178    0.93291   1.00
H3       0.25259    0.49828    0.84002   1.00
H3       0.32097    0.52566    0.86585   1.00
C4       0.72915    0.50000    0.99990   1.00
C4       0.77085    0.50000    1.00010   1.00
C3       0.70708    0.52506    0.97577   1.00
C3       0.79225    0.47082    0.98042   1.00
C3       0.70816    0.47432    1.02438   1.00
C3a      0.79263    0.52968    1.01966   1.00
C2       0.64483    0.49916    1.00125   1.00
C2       0.85517    0.50054    0.99863   1.00
C3       0.66566    0.52460    0.97650   1.00
C3       0.83359    0.47115    0.97972   1.00
C3       0.66680    0.47404    1.02516   1.00
C3       0.83415    0.52955    1.01851   1.00
H1       0.72192    0.54505    0.95633   1.00
H1       0.77685    0.44777    0.96523   1.00
H1       0.64968    0.54427    0.95765   1.00
H1       0.84895    0.44830    0.96422   1.00
H1       0.65179    0.45431    1.04473   1.00
H1       0.85043    0.55207    1.03353   1.00
C5       0.77239    0.56146    1.04274   1.00
H1       0.72401    0.45508    1.04379   1.00
H2       0.79354    0.58401    1.05255   1.00
H2       0.75103    0.57662    1.02363   1.00
N1       0.75292    0.54515    1.07706   1.00
C6       0.77012    0.52528    1.10628   1.00
C6       0.71460    0.54758    1.08538   1.00
C6       0.74243    0.51457    1.13343   1.00
C6       0.70711    0.52874    1.12013   1.00
H3       0.80099    0.51869    1.10774   1.00
H3       0.69309    0.56178    1.06709   1.00
H3       0.74741    0.49828    1.15998   1.00
H3       0.67903    0.52566    1.13415   1.00
C4       0.50010    0.27085    1.00000   1.00
C4       0.49990    0.22915    1.00000   1.00
C3       0.52423    0.29292    1.02506   1.00
C3       0.51958    0.20775    0.97082   1.00
C3       0.47562    0.29184    0.97432   1.00
C3a      0.48034    0.20737    1.02968   1.00
C2       0.49875    0.35517    0.99916   1.00
C2       0.50137    0.14483    1.00054   1.00
C3       0.52350    0.33434    1.02460   1.00
C3       0.52028    0.16641    0.97115   1.00
C3       0.47484    0.33320    0.97404   1.00
C3       0.48149    0.16585    1.02955   1.00
H1       0.54367    0.27808    1.04505   1.00
H1       0.53477    0.22315    0.94777   1.00
H1       0.54235    0.35032    1.04427   1.00
H1       0.53578    0.15105    0.94830   1.00
H1       0.45527    0.34821    0.95431   1.00
H1       0.46647    0.14957    1.05207   1.00
C5       0.45726    0.22761    1.06146   1.00
H1       0.45621    0.27599    0.95508   1.00
H2       0.44745    0.20646    1.08401   1.00
H2       0.47637    0.24897    1.07662   1.00
N1       0.42294    0.24708    1.04515   1.00
C6       0.39372    0.22988    1.02528   1.00
C6       0.41462    0.28540    1.04758   1.00
C6       0.36657    0.25757    1.01457   1.00
C6       0.37987    0.29289    1.02874   1.00
H3       0.39226    0.19901    1.01869   1.00
H3       0.43291    0.30691    1.06178   1.00
H3       0.34002    0.25259    0.99828   1.00
H3       0.36585    0.32097    1.02566   1.00
C4       0.50000    0.50010    0.77085   1.00
C4       0.50000    0.49990    0.72915   1.00
C3       0.52506    0.52423    0.79292   1.00
C3       0.47082    0.51958    0.70775   1.00
C3       0.47432    0.47562    0.79184   1.00
C3a      0.52968    0.48034    0.70737   1.00
C2       0.49916    0.49875    0.85517   1.00
C2       0.50054    0.50137    0.64483   1.00
C3       0.52460    0.52350    0.83434   1.00
C3       0.47115    0.52028    0.66641   1.00
C3       0.47404    0.47484    0.83320   1.00
C3       0.52955    0.48149    0.66585   1.00
H1       0.54505    0.54367    0.77808   1.00
H1       0.44777    0.53477    0.72315   1.00
H1       0.54427    0.54235    0.85032   1.00
H1       0.44830    0.53578    0.65105   1.00
H1       0.45431    0.45527    0.84821   1.00
H1       0.55207    0.46647    0.64957   1.00
C5       0.56146    0.45726    0.72761   1.00
H1       0.45508    0.45621    0.77599   1.00
H2       0.58401    0.44745    0.70646   1.00
H2       0.57662    0.47637    0.74897   1.00
N1       0.54515    0.42294    0.74708   1.00
C6       0.52528    0.39372    0.72988   1.00
C6       0.54758    0.41462    0.78540   1.00
C6       0.51457    0.36657    0.75757   1.00
C6       0.52874    0.37987    0.79289   1.00
H3       0.51869    0.39226    0.69901   1.00
H3       0.56178    0.43291    0.80691   1.00
H3       0.49828    0.34002    0.75259   1.00
H3       0.52566    0.36585    0.82097   1.00
C4       0.50000    0.99990    0.72915   1.00
C4       0.50000    1.00010    0.77085   1.00
C3       0.52506    0.97577    0.70708   1.00
C3       0.47082    0.98042    0.79225   1.00
C3       0.47432    1.02438    0.70816   1.00
C3a      0.52968    1.01966    0.79263   1.00
C2       0.49916    1.00125    0.64483   1.00
C2       0.50054    0.99863    0.85517   1.00
C3       0.52460    0.97650    0.66566   1.00
C3       0.47115    0.97972    0.83359   1.00
C3       0.47404    1.02516    0.66680   1.00
C3       0.52955    1.01851    0.83415   1.00
H1       0.54505    0.95633    0.72192   1.00
H1       0.44777    0.96523    0.77685   1.00
H1       0.54427    0.95765    0.64968   1.00
H1       0.44830    0.96422    0.84895   1.00
H1       0.45431    1.04473    0.65179   1.00
H1       0.55207    1.03353    0.85043   1.00
C5       0.56146    1.04274    0.77239   1.00
H1       0.45508    1.04379    0.72401   1.00
H2       0.58401    1.05255    0.79354   1.00
H2       0.57662    1.02363    0.75103   1.00
N1       0.54515    1.07706    0.75292   1.00
C6       0.52528    1.10628    0.77012   1.00
C6       0.54758    1.08538    0.71460   1.00
C6       0.51457    1.13343    0.74243   1.00
C6       0.52874    1.12013    0.70711   1.00
H3       0.51869    1.10774    0.80099   1.00
H3       0.56178    1.06709    0.69309   1.00
H3       0.49828    1.15998    0.74741   1.00
H3       0.52566    1.13415    0.67903   1.00
C4       0.49990    1.22915    0.50000   1.00
C4       0.50010    1.27085    0.50000   1.00
C3       0.47577    1.20708    0.52506   1.00
C3       0.48042    1.29225    0.47082   1.00
C3       0.52438    1.20816    0.47432   1.00
C3a      0.51966    1.29263    0.52968   1.00
C2       0.50125    1.14483    0.49916   1.00
C2       0.49863    1.35517    0.50054   1.00
C3       0.47650    1.16566    0.52460   1.00
C3       0.47972    1.33359    0.47115   1.00
C3       0.52516    1.16680    0.47404   1.00
C3       0.51851    1.33415    0.52955   1.00
H1       0.45633    1.22192    0.54505   1.00
H1       0.46523    1.27685    0.44777   1.00
H1       0.45765    1.14968    0.54427   1.00
H1       0.46422    1.34895    0.44830   1.00
H1       0.54473    1.15179    0.45431   1.00
H1       0.53353    1.35043    0.55207   1.00
C5       0.54274    1.27239    0.56146   1.00
H1       0.54379    1.22401    0.45508   1.00
H2       0.55255    1.29354    0.58401   1.00
H2       0.52363    1.25103    0.57662   1.00
N1       0.57706    1.25292    0.54515   1.00
C6       0.60628    1.27012    0.52528   1.00
C6       0.58538    1.21460    0.54758   1.00
C6       0.63343    1.24243    0.51457   1.00
C6       0.62013    1.20711    0.52874   1.00
H3       0.60774    1.30099    0.51869   1.00
H3       0.56709    1.19309    0.56178   1.00
H3       0.65998    1.24741    0.49828   1.00
H3       0.63415    1.17903    0.52566   1.00
C4       0.27085    1.00000    0.50010   1.00
C4       0.22915    1.00000    0.49990   1.00
C3       0.29292    1.02506    0.52423   1.00
C3       0.20775    0.97082    0.51958   1.00
C3       0.29184    0.97432    0.47562   1.00
C3a      0.20737    1.02968    0.48034   1.00
C2       0.35517    0.99916    0.49875   1.00
C2       0.14483    1.00054    0.50137   1.00
C3       0.33434    1.02460    0.52350   1.00
C3       0.16641    0.97115    0.52028   1.00
C3       0.33320    0.97404    0.47484   1.00
C3       0.16585    1.02955    0.48149   1.00
H1       0.27808    1.04505    0.54367   1.00
H1       0.22315    0.94777    0.53477   1.00
H1       0.35032    1.04427    0.54235   1.00
H1       0.15105    0.94830    0.53578   1.00
H1       0.34821    0.95431    0.45527   1.00
H1       0.14957    1.05207    0.46647   1.00
C5       0.22761    1.06146    0.45726   1.00
H1       0.27599    0.95508    0.45621   1.00
H2       0.20646    1.08401    0.44745   1.00
H2       0.24897    1.07662    0.47637   1.00
N1       0.24708    1.04515    0.42294   1.00
C6       0.22988    1.02528    0.39372   1.00
C6       0.28540    1.04758    0.41462   1.00
C6       0.25757    1.01457    0.36657   1.00
C6       0.29289    1.02874    0.37987   1.00
H3       0.19901    1.01869    0.39226   1.00
H3       0.30691    1.06178    0.43291   1.00
H3       0.25259    0.99828    0.34002   1.00
H3       0.32097    1.02566    0.36585   1.00
C4       0.72915    1.00000    0.49990   1.00
C4       0.77085    1.00000    0.50010   1.00
C3       0.70708    1.02506    0.47577   1.00
C3       0.79225    0.97082    0.48042   1.00
C3       0.70816    0.97432    0.52438   1.00
C3a      0.79263    1.02968    0.51966   1.00
C2       0.64483    0.99916    0.50125   1.00
C2       0.85517    1.00054    0.49863   1.00
C3       0.66566    1.02460    0.47650   1.00
C3       0.83359    0.97115    0.47972   1.00
C3       0.66680    0.97404    0.52516   1.00
C3       0.83415    1.02955    0.51851   1.00
H1       0.72192    1.04505    0.45633   1.00
H1       0.77685    0.94777    0.46523   1.00
H1       0.64968    1.04427    0.45765   1.00
H1       0.84895    0.94830    0.46422   1.00
H1       0.65179    0.95431    0.54473   1.00
H1       0.85043    1.05207    0.53353   1.00
C5       0.77239    1.06146    0.54274   1.00
H1       0.72401    0.95508    0.54379   1.00
H2       0.79354    1.08401    0.55255   1.00
H2       0.75103    1.07662    0.52363   1.00
N1       0.75292    1.04515    0.57706   1.00
C6       0.77012    1.02528    0.60628   1.00
C6       0.71460    1.04758    0.58538   1.00
C6       0.74243    1.01457    0.63343   1.00
C6       0.70711    1.02874    0.62013   1.00
H3       0.80099    1.01869    0.60774   1.00
H3       0.69309    1.06178    0.56709   1.00
H3       0.74741    0.99828    0.65998   1.00
H3       0.67903    1.02566    0.63415   1.00
C4       0.50010    0.77085    0.50000   1.00
C4       0.49990    0.72915    0.50000   1.00
C3       0.52423    0.79292    0.52506   1.00
C3       0.51958    0.70775    0.47082   1.00
C3       0.47562    0.79184    0.47432   1.00
C3a      0.48034    0.70737    0.52968   1.00
C2       0.49875    0.85517    0.49916   1.00
C2       0.50137    0.64483    0.50054   1.00
C3       0.52350    0.83434    0.52460   1.00
C3       0.52028    0.66641    0.47115   1.00
C3       0.47484    0.83320    0.47404   1.00
C3       0.48149    0.66585    0.52955   1.00
H1       0.54367    0.77808    0.54505   1.00
H1       0.53477    0.72315    0.44777   1.00
H1       0.54235    0.85032    0.54427   1.00
H1       0.53578    0.65105    0.44830   1.00
H1       0.45527    0.84821    0.45431   1.00
H1       0.46647    0.64957    0.55207   1.00
C5       0.45726    0.72761    0.56146   1.00
H1       0.45621    0.77599    0.45508   1.00
H2       0.44745    0.70646    0.58401   1.00
H2       0.47637    0.74897    0.57662   1.00
N1       0.42294    0.74708    0.54515   1.00
C6       0.39372    0.72988    0.52528   1.00
C6       0.41462    0.78540    0.54758   1.00
C6       0.36657    0.75757    0.51457   1.00
C6       0.37987    0.79289    0.52874   1.00
H3       0.39226    0.69901    0.51869   1.00
H3       0.43291    0.80691    0.56178   1.00
H3       0.34002    0.75259    0.49828   1.00
H3       0.36585    0.82097    0.52566   1.00
C4       0.50000    1.00010    0.27085   1.00
C4       0.50000    0.99990    0.22915   1.00
C3       0.52506    1.02423    0.29292   1.00
C3       0.47082    1.01958    0.20775   1.00
C3       0.47432    0.97562    0.29184   1.00
C3a      0.52968    0.98034    0.20737   1.00
C2       0.49916    0.99875    0.35517   1.00
C2       0.50054    1.00137    0.14483   1.00
C3       0.52460    1.02350    0.33434   1.00
C3       0.47115    1.02028    0.16641   1.00
C3       0.47404    0.97484    0.33320   1.00
C3       0.52955    0.98149    0.16585   1.00
H1       0.54505    1.04367    0.27808   1.00
H1       0.44777    1.03477    0.22315   1.00
H1       0.54427    1.04235    0.35032   1.00
H1       0.44830    1.03578    0.15105   1.00
H1       0.45431    0.95527    0.34821   1.00
H1       0.55207    0.96647    0.14957   1.00
C5       0.56146    0.95726    0.22761   1.00
H1       0.45508    0.95621    0.27599   1.00
H2       0.58401    0.94745    0.20646   1.00
H2       0.57662    0.97637    0.24897   1.00
N1       0.54515    0.92294    0.24708   1.00
C6       0.52528    0.89372    0.22988   1.00
C6       0.54758    0.91462    0.28540   1.00
C6       0.51457    0.86657    0.25757   1.00
C6       0.52874    0.87987    0.29289   1.00
H3       0.51869    0.89226    0.19901   1.00
H3       0.56178    0.93291    0.30691   1.00
H3       0.49828    0.84002    0.25259   1.00
H3       0.52566    0.86585    0.32097   1.00
C4       1.00000    0.49990    0.72915   1.00
C4       1.00000    0.50010    0.77085   1.00
C3       1.02506    0.47577    0.70708   1.00
C3       0.97082    0.48042    0.79225   1.00
C3       0.97432    0.52438    0.70816   1.00
C3a      1.02968    0.51966    0.79263   1.00
C2       0.99916    0.50125    0.64483   1.00
C2       1.00054    0.49863    0.85517   1.00
C3       1.02460    0.47650    0.66566   1.00
C3       0.97115    0.47972    0.83359   1.00
C3       0.97404    0.52516    0.66680   1.00
C3       1.02955    0.51851    0.83415   1.00
H1       1.04505    0.45633    0.72192   1.00
H1       0.94777    0.46523    0.77685   1.00
H1       1.04427    0.45765    0.64968   1.00
H1       0.94830    0.46422    0.84895   1.00
H1       0.95431    0.54473    0.65179   1.00
H1       1.05207    0.53353    0.85043   1.00
C5       1.06146    0.54274    0.77239   1.00
H1       0.95508    0.54379    0.72401   1.00
H2       1.08401    0.55255    0.79354   1.00
H2       1.07662    0.52363    0.75103   1.00
N1       1.04515    0.57706    0.75292   1.00
C6       1.02528    0.60628    0.77012   1.00
C6       1.04758    0.58538    0.71460   1.00
C6       1.01457    0.63343    0.74243   1.00
C6       1.02874    0.62013    0.70711   1.00
H3       1.01869    0.60774    0.80099   1.00
H3       1.06178    0.56709    0.69309   1.00
H3       0.99828    0.65998    0.74741   1.00
H3       1.02566    0.63415    0.67903   1.00
C4       0.99990    0.72915    0.50000   1.00
C4       1.00010    0.77085    0.50000   1.00
C3       0.97577    0.70708    0.52506   1.00
C3       0.98042    0.79225    0.47082   1.00
C3       1.02438    0.70816    0.47432   1.00
C3a      1.01966    0.79263    0.52968   1.00
C2       1.00125    0.64483    0.49916   1.00
C2       0.99863    0.85517    0.50054   1.00
C3       0.97650    0.66566    0.52460   1.00
C3       0.97972    0.83359    0.47115   1.00
C3       1.02516    0.66680    0.47404   1.00
C3       1.01851    0.83415    0.52955   1.00
H1       0.95633    0.72192    0.54505   1.00
H1       0.96523    0.77685    0.44777   1.00
H1       0.95765    0.64968    0.54427   1.00
H1       0.96422    0.84895    0.44830   1.00
H1       1.04473    0.65179    0.45431   1.00
H1       1.03353    0.85043    0.55207   1.00
C5       1.04274    0.77239    0.56146   1.00
H1       1.04379    0.72401    0.45508   1.00
H2       1.05255    0.79354    0.58401   1.00
H2       1.02363    0.75103    0.57662   1.00
N1       1.07706    0.75292    0.54515   1.00
C6       1.10628    0.77012    0.52528   1.00
C6       1.08538    0.71460    0.54758   1.00
C6       1.13343    0.74243    0.51457   1.00
C6       1.12013    0.70711    0.52874   1.00
H3       1.10774    0.80099    0.51869   1.00
H3       1.06709    0.69309    0.56178   1.00
H3       1.15998    0.74741    0.49828   1.00
H3       1.13415    0.67903    0.52566   1.00
C4       0.77085    0.50000    0.50010   1.00
C4       0.72915    0.50000    0.49990   1.00
C3       0.79292    0.52506    0.52423   1.00
C3       0.70775    0.47082    0.51958   1.00
C3       0.79184    0.47432    0.47562   1.00
C3a      0.70737    0.52968    0.48034   1.00
C2       0.85517    0.49916    0.49875   1.00
C2       0.64483    0.50054    0.50137   1.00
C3       0.83434    0.52460    0.52350   1.00
C3       0.66641    0.47115    0.52028   1.00
C3       0.83320    0.47404    0.47484   1.00
C3       0.66585    0.52955    0.48149   1.00
H1       0.77808    0.54505    0.54367   1.00
H1       0.72315    0.44777    0.53477   1.00
H1       0.85032    0.54427    0.54235   1.00
H1       0.65105    0.44830    0.53578   1.00
H1       0.84821    0.45431    0.45527   1.00
H1       0.64957    0.55207    0.46647   1.00
C5       0.72761    0.56146    0.45726   1.00
H1       0.77599    0.45508    0.45621   1.00
H2       0.70646    0.58401    0.44745   1.00
H2       0.74897    0.57662    0.47637   1.00
N1       0.74708    0.54515    0.42294   1.00
C6       0.72988    0.52528    0.39372   1.00
C6       0.78540    0.54758    0.41462   1.00
C6       0.75757    0.51457    0.36657   1.00
C6       0.79289    0.52874    0.37987   1.00
H3       0.69901    0.51869    0.39226   1.00
H3       0.80691    0.56178    0.43291   1.00
H3       0.75259    0.49828    0.34002   1.00
H3       0.82097    0.52566    0.36585   1.00
C4       1.22915    0.50000    0.49990   1.00
C4       1.27085    0.50000    0.50010   1.00
C3       1.20708    0.52506    0.47577   1.00
C3       1.29225    0.47082    0.48042   1.00
C3       1.20816    0.47432    0.52438   1.00
C3a      1.29263    0.52968    0.51966   1.00
C2       1.14483    0.49916    0.50125   1.00
C2       1.35517    0.50054    0.49863   1.00
C3       1.16566    0.52460    0.47650   1.00
C3       1.33359    0.47115    0.47972   1.00
C3       1.16680    0.47404    0.52516   1.00
C3       1.33415    0.52955    0.51851   1.00
H1       1.22192    0.54505    0.45633   1.00
H1       1.27685    0.44777    0.46523   1.00
H1       1.14968    0.54427    0.45765   1.00
H1       1.34895    0.44830    0.46422   1.00
H1       1.15179    0.45431    0.54473   1.00
H1       1.35043    0.55207    0.53353   1.00
C5       1.27239    0.56146    0.54274   1.00
H1       1.22401    0.45508    0.54379   1.00
H2       1.29354    0.58401    0.55255   1.00
H2       1.25103    0.57662    0.52363   1.00
N1       1.25292    0.54515    0.57706   1.00
C6       1.27012    0.52528    0.60628   1.00
C6       1.21460    0.54758    0.58538   1.00
C6       1.24243    0.51457    0.63343   1.00
C6       1.20711    0.52874    0.62013   1.00
H3       1.30099    0.51869    0.60774   1.00
H3       1.19309    0.56178    0.56709   1.00
H3       1.24741    0.49828    0.65998   1.00
H3       1.17903    0.52566    0.63415   1.00
C4       1.00010    0.27085    0.50000   1.00
C4       0.99990    0.22915    0.50000   1.00
C3       1.02423    0.29292    0.52506   1.00
C3       1.01958    0.20775    0.47082   1.00
C3       0.97562    0.29184    0.47432   1.00
C3a      0.98034    0.20737    0.52968   1.00
C2       0.99875    0.35517    0.49916   1.00
C2       1.00137    0.14483    0.50054   1.00
C3       1.02350    0.33434    0.52460   1.00
C3       1.02028    0.16641    0.47115   1.00
C3       0.97484    0.33320    0.47404   1.00
C3       0.98149    0.16585    0.52955   1.00
H1       1.04367    0.27808    0.54505   1.00
H1       1.03477    0.22315    0.44777   1.00
H1       1.04235    0.35032    0.54427   1.00
H1       1.03578    0.15105    0.44830   1.00
H1       0.95527    0.34821    0.45431   1.00
H1       0.96647    0.14957    0.55207   1.00
C5       0.95726    0.22761    0.56146   1.00
H1       0.95621    0.27599    0.45508   1.00
H2       0.94745    0.20646    0.58401   1.00
H2       0.97637    0.24897    0.57662   1.00
N1       0.92294    0.24708    0.54515   1.00
C6       0.89372    0.22988    0.52528   1.00
C6       0.91462    0.28540    0.54758   1.00
C6       0.86657    0.25757    0.51457   1.00
C6       0.87987    0.29289    0.52874   1.00
H3       0.89226    0.19901    0.51869   1.00
H3       0.93291    0.30691    0.56178   1.00
H3       0.84002    0.25259    0.49828   1.00
H3       0.86585    0.32097    0.52566   1.00
C4       1.00000    0.50010    0.27085   1.00
C4       1.00000    0.49990    0.22915   1.00
C3       1.02506    0.52423    0.29292   1.00
C3       0.97082    0.51958    0.20775   1.00
C3       0.97432    0.47562    0.29184   1.00
C3a      1.02968    0.48034    0.20737   1.00
C2       0.99916    0.49875    0.35517   1.00
C2       1.00054    0.50137    0.14483   1.00
C3       1.02460    0.52350    0.33434   1.00
C3       0.97115    0.52028    0.16641   1.00
C3       0.97404    0.47484    0.33320   1.00
C3       1.02955    0.48149    0.16585   1.00
H1       1.04505    0.54367    0.27808   1.00
H1       0.94777    0.53477    0.22315   1.00
H1       1.04427    0.54235    0.35032   1.00
H1       0.94830    0.53578    0.15105   1.00
H1       0.95431    0.45527    0.34821   1.00
H1       1.05207    0.46647    0.14957   1.00
C5       1.06146    0.45726    0.22761   1.00
H1       0.95508    0.45621    0.27599   1.00
H2       1.08401    0.44745    0.20646   1.00
H2       1.07662    0.47637    0.24897   1.00
N1       1.04515    0.42294    0.24708   1.00
C6       1.02528    0.39372    0.22988   1.00
C6       1.04758    0.41462    0.28540   1.00
C6       1.01457    0.36657    0.25757   1.00
C6       1.02874    0.37987    0.29289   1.00
H3       1.01869    0.39226    0.19901   1.00
H3       1.06178    0.43291    0.30691   1.00
H3       0.99828    0.34002    0.25259   1.00
H3       1.02566    0.36585    0.32097   1.00
