data_IRMOF10_SG202_interpen_Ligand4lp_label_b.

_audit_creation_method             'generated by an auxiliary program of Tobunporous'

_symmetry_space_group_name_H-M     'P 1'
_symmetry_Int_Tables_number        1
_symmetry_cell_setting             triclinic

_cell_length_a                    34.2800
_cell_length_b                    34.2800
_cell_length_c                    34.2800
_cell_angle_alpha                 90.0000
_cell_angle_beta                  90.0000
_cell_angle_gamma                 90.0000

loop_
_atom_site_label
_atom_site_fract_x
_atom_site_fract_y
_atom_site_fract_z
_atom_site_occupancy
O1       0.75000    0.75000    0.75000   1.00
Zn1      0.71720    0.78280    0.78280   1.00
Zn1      0.78280    0.71720    0.78280   1.00
Zn1      0.78280    0.78280    0.71720   1.00
Zn1      0.71720    0.71720    0.71720   1.00
O2       0.72650    0.77350    0.83820   1.00
O2       0.72650    0.83820    0.77350   1.00
O2       0.66180    0.77350    0.77350   1.00
O2       0.77350    0.72650    0.83820   1.00
O2       0.83820    0.72650    0.77350   1.00
O2       0.77350    0.66180    0.77350   1.00
O2       0.77350    0.83820    0.72650   1.00
O2       0.83820    0.77350    0.72650   1.00
O2       0.77350    0.77350    0.66180   1.00
O2       0.66180    0.72650    0.72650   1.00
O2       0.72650    0.66180    0.72650   1.00
O2       0.72650    0.72650    0.66180   1.00
C1       0.75000    0.75000    0.85520   1.00
C1       0.75000    0.85520    0.75000   1.00
C1       0.64480    0.75000    0.75000   1.00
C1       0.85520    0.75000    0.75000   1.00
C1       0.75000    0.64480    0.75000   1.00
C1       0.75000    0.75000    0.64480   1.00
O1       0.25000    0.25000    0.75000   1.00
Zn1      0.21720    0.28280    0.78280   1.00
Zn1      0.28280    0.21720    0.78280   1.00
Zn1      0.28280    0.28280    0.71720   1.00
Zn1      0.21720    0.21720    0.71720   1.00
O2       0.22650    0.27350    0.83820   1.00
O2       0.22650    0.33820    0.77350   1.00
O2       0.16180    0.27350    0.77350   1.00
O2       0.27350    0.22650    0.83820   1.00
O2       0.33820    0.22650    0.77350   1.00
O2       0.27350    0.16180    0.77350   1.00
O2       0.27350    0.33820    0.72650   1.00
O2       0.33820    0.27350    0.72650   1.00
O2       0.27350    0.27350    0.66180   1.00
O2       0.16180    0.22650    0.72650   1.00
O2       0.22650    0.16180    0.72650   1.00
O2       0.22650    0.22650    0.66180   1.00
C1       0.25000    0.25000    0.85520   1.00
C1       0.25000    0.35520    0.75000   1.00
C1       0.14480    0.25000    0.75000   1.00
C1       0.35520    0.25000    0.75000   1.00
C1       0.25000    0.14480    0.75000   1.00
C1       0.25000    0.25000    0.64480   1.00
O1       0.25000    0.75000    0.25000   1.00
Zn1      0.21720    0.78280    0.28280   1.00
Zn1      0.28280    0.71720    0.28280   1.00
Zn1      0.28280    0.78280    0.21720   1.00
Zn1      0.21720    0.71720    0.21720   1.00
O2       0.22650    0.77350    0.33820   1.00
O2       0.22650    0.83820    0.27350   1.00
O2       0.16180    0.77350    0.27350   1.00
O2       0.27350    0.72650    0.33820   1.00
O2       0.33820    0.72650    0.27350   1.00
O2       0.27350    0.66180    0.27350   1.00
O2       0.27350    0.83820    0.22650   1.00
O2       0.33820    0.77350    0.22650   1.00
O2       0.27350    0.77350    0.16180   1.00
O2       0.16180    0.72650    0.22650   1.00
O2       0.22650    0.66180    0.22650   1.00
O2       0.22650    0.72650    0.16180   1.00
C1       0.25000    0.75000    0.35520   1.00
C1       0.25000    0.85520    0.25000   1.00
C1       0.14480    0.75000    0.25000   1.00
C1       0.35520    0.75000    0.25000   1.00
C1       0.25000    0.64480    0.25000   1.00
C1       0.25000    0.75000    0.14480   1.00
O1       0.75000    0.25000    0.25000   1.00
Zn1      0.71720    0.28280    0.28280   1.00
Zn1      0.78280    0.21720    0.28280   1.00
Zn1      0.78280    0.28280    0.21720   1.00
Zn1      0.71720    0.21720    0.21720   1.00
O2       0.72650    0.27350    0.33820   1.00
O2       0.72650    0.33820    0.27350   1.00
O2       0.66180    0.27350    0.27350   1.00
O2       0.77350    0.22650    0.33820   1.00
O2       0.83820    0.22650    0.27350   1.00
O2       0.77350    0.16180    0.27350   1.00
O2       0.77350    0.33820    0.22650   1.00
O2       0.83820    0.27350    0.22650   1.00
O2       0.77350    0.27350    0.16180   1.00
O2       0.66180    0.22650    0.22650   1.00
O2       0.72650    0.16180    0.22650   1.00
O2       0.72650    0.22650    0.16180   1.00
C1       0.75000    0.25000    0.35520   1.00
C1       0.75000    0.35520    0.25000   1.00
C1       0.64480    0.25000    0.25000   1.00
C1       0.85520    0.25000    0.25000   1.00
C1       0.75000    0.14480    0.25000   1.00
C1       0.75000    0.25000    0.14480   1.00
O1       0.25000    0.25000    0.25000   1.00
Zn1      0.28280    0.21720    0.21720   1.00
Zn1      0.21720    0.28280    0.21720   1.00
Zn1      0.21720    0.21720    0.28280   1.00
Zn1      0.28280    0.28280    0.28280   1.00
O2       0.27350    0.22650    0.16180   1.00
O2       0.27350    0.16180    0.22650   1.00
O2       0.33820    0.22650    0.22650   1.00
O2       0.22650    0.27350    0.16180   1.00
O2       0.16180    0.27350    0.22650   1.00
O2       0.22650    0.33820    0.22650   1.00
O2       0.22650    0.16180    0.27350   1.00
O2       0.16180    0.22650    0.27350   1.00
O2       0.22650    0.22650    0.33820   1.00
O2       0.33820    0.27350    0.27350   1.00
O2       0.27350    0.33820    0.27350   1.00
O2       0.27350    0.27350    0.33820   1.00
C1       0.25000    0.25000    0.14480   1.00
C1       0.25000    0.14480    0.25000   1.00
C1       0.35520    0.25000    0.25000   1.00
C1       0.14480    0.25000    0.25000   1.00
C1       0.25000    0.35520    0.25000   1.00
C1       0.25000    0.25000    0.35520   1.00
O1       0.75000    0.75000    0.25000   1.00
Zn1      0.78280    0.71720    0.21720   1.00
Zn1      0.71720    0.78280    0.21720   1.00
Zn1      0.71720    0.71720    0.28280   1.00
Zn1      0.78280    0.78280    0.28280   1.00
O2       0.77350    0.72650    0.16180   1.00
O2       0.77350    0.66180    0.22650   1.00
O2       0.83820    0.72650    0.22650   1.00
O2       0.72650    0.77350    0.16180   1.00
O2       0.66180    0.77350    0.22650   1.00
O2       0.72650    0.83820    0.22650   1.00
O2       0.72650    0.66180    0.27350   1.00
O2       0.66180    0.72650    0.27350   1.00
O2       0.72650    0.72650    0.33820   1.00
O2       0.83820    0.77350    0.27350   1.00
O2       0.77350    0.83820    0.27350   1.00
O2       0.77350    0.77350    0.33820   1.00
C1       0.75000    0.75000    0.14480   1.00
C1       0.75000    0.64480    0.25000   1.00
C1       0.85520    0.75000    0.25000   1.00
C1       0.64480    0.75000    0.25000   1.00
C1       0.75000    0.85520    0.25000   1.00
C1       0.75000    0.75000    0.35520   1.00
O1       0.75000    0.25000    0.75000   1.00
Zn1      0.78280    0.21720    0.71720   1.00
Zn1      0.71720    0.28280    0.71720   1.00
Zn1      0.71720    0.21720    0.78280   1.00
Zn1      0.78280    0.28280    0.78280   1.00
O2       0.77350    0.22650    0.66180   1.00
O2       0.77350    0.16180    0.72650   1.00
O2       0.83820    0.22650    0.72650   1.00
O2       0.72650    0.27350    0.66180   1.00
O2       0.66180    0.27350    0.72650   1.00
O2       0.72650    0.33820    0.72650   1.00
O2       0.72650    0.16180    0.77350   1.00
O2       0.66180    0.22650    0.77350   1.00
O2       0.72650    0.22650    0.83820   1.00
O2       0.83820    0.27350    0.77350   1.00
O2       0.77350    0.33820    0.77350   1.00
O2       0.77350    0.27350    0.83820   1.00
C1       0.75000    0.25000    0.64480   1.00
C1       0.75000    0.14480    0.75000   1.00
C1       0.85520    0.25000    0.75000   1.00
C1       0.64480    0.25000    0.75000   1.00
C1       0.75000    0.35520    0.75000   1.00
C1       0.75000    0.25000    0.85520   1.00
O1       0.25000    0.75000    0.75000   1.00
Zn1      0.28280    0.71720    0.71720   1.00
Zn1      0.21720    0.78280    0.71720   1.00
Zn1      0.21720    0.71720    0.78280   1.00
Zn1      0.28280    0.78280    0.78280   1.00
O2       0.27350    0.72650    0.66180   1.00
O2       0.27350    0.66180    0.72650   1.00
O2       0.33820    0.72650    0.72650   1.00
O2       0.22650    0.77350    0.66180   1.00
O2       0.16180    0.77350    0.72650   1.00
O2       0.22650    0.83820    0.72650   1.00
O2       0.22650    0.66180    0.77350   1.00
O2       0.16180    0.72650    0.77350   1.00
O2       0.22650    0.72650    0.83820   1.00
O2       0.33820    0.77350    0.77350   1.00
O2       0.27350    0.83820    0.77350   1.00
O2       0.27350    0.77350    0.83820   1.00
C1       0.25000    0.75000    0.64480   1.00
C1       0.25000    0.64480    0.75000   1.00
C1       0.35520    0.75000    0.75000   1.00
C1       0.14480    0.75000    0.75000   1.00
C1       0.25000    0.85520    0.75000   1.00
C1       0.25000    0.75000    0.85520   1.00
O1       1.00000    1.00000    1.00000   1.00
Zn1      0.96720    1.03280    1.03280   1.00
Zn1      1.03280    0.96720    1.03280   1.00
Zn1      1.03280    1.03280    0.96720   1.00
Zn1      0.96720    0.96720    0.96720   1.00
O2       0.97650    1.02350    1.08820   1.00
O2       0.97650    1.08820    1.02350   1.00
O2       0.91180    1.02350    1.02350   1.00
O2       1.02350    0.97650    1.08820   1.00
O2       1.08820    0.97650    1.02350   1.00
O2       1.02350    0.91180    1.02350   1.00
O2       1.02350    1.08820    0.97650   1.00
O2       1.08820    1.02350    0.97650   1.00
O2       1.02350    1.02350    0.91180   1.00
O2       0.91180    0.97650    0.97650   1.00
O2       0.97650    0.91180    0.97650   1.00
O2       0.97650    0.97650    0.91180   1.00
C1       1.00000    1.00000    1.10520   1.00
C1       1.00000    1.10520    1.00000   1.00
C1       0.89480    1.00000    1.00000   1.00
C1       1.10520    1.00000    1.00000   1.00
C1       1.00000    0.89480    1.00000   1.00
C1       1.00000    1.00000    0.89480   1.00
O1       0.50000    0.50000    1.00000   1.00
Zn1      0.46720    0.53280    1.03280   1.00
Zn1      0.53280    0.46720    1.03280   1.00
Zn1      0.53280    0.53280    0.96720   1.00
Zn1      0.46720    0.46720    0.96720   1.00
O2       0.47650    0.52350    1.08820   1.00
O2       0.47650    0.58820    1.02350   1.00
O2       0.41180    0.52350    1.02350   1.00
O2       0.52350    0.47650    1.08820   1.00
O2       0.58820    0.47650    1.02350   1.00
O2       0.52350    0.41180    1.02350   1.00
O2       0.52350    0.58820    0.97650   1.00
O2       0.58820    0.52350    0.97650   1.00
O2       0.52350    0.52350    0.91180   1.00
O2       0.41180    0.47650    0.97650   1.00
O2       0.47650    0.41180    0.97650   1.00
O2       0.47650    0.47650    0.91180   1.00
C1       0.50000    0.50000    1.10520   1.00
C1       0.50000    0.60520    1.00000   1.00
C1       0.39480    0.50000    1.00000   1.00
C1       0.60520    0.50000    1.00000   1.00
C1       0.50000    0.39480    1.00000   1.00
C1       0.50000    0.50000    0.89480   1.00
O1       0.50000    1.00000    0.50000   1.00
Zn1      0.46720    1.03280    0.53280   1.00
Zn1      0.53280    0.96720    0.53280   1.00
Zn1      0.53280    1.03280    0.46720   1.00
Zn1      0.46720    0.96720    0.46720   1.00
O2       0.47650    1.02350    0.58820   1.00
O2       0.47650    1.08820    0.52350   1.00
O2       0.41180    1.02350    0.52350   1.00
O2       0.52350    0.97650    0.58820   1.00
O2       0.58820    0.97650    0.52350   1.00
O2       0.52350    0.91180    0.52350   1.00
O2       0.52350    1.08820    0.47650   1.00
O2       0.58820    1.02350    0.47650   1.00
O2       0.52350    1.02350    0.41180   1.00
O2       0.41180    0.97650    0.47650   1.00
O2       0.47650    0.91180    0.47650   1.00
O2       0.47650    0.97650    0.41180   1.00
C1       0.50000    1.00000    0.60520   1.00
C1       0.50000    1.10520    0.50000   1.00
C1       0.39480    1.00000    0.50000   1.00
C1       0.60520    1.00000    0.50000   1.00
C1       0.50000    0.89480    0.50000   1.00
C1       0.50000    1.00000    0.39480   1.00
O1       1.00000    0.50000    0.50000   1.00
Zn1      0.96720    0.53280    0.53280   1.00
Zn1      1.03280    0.46720    0.53280   1.00
Zn1      1.03280    0.53280    0.46720   1.00
Zn1      0.96720    0.46720    0.46720   1.00
O2       0.97650    0.52350    0.58820   1.00
O2       0.97650    0.58820    0.52350   1.00
O2       0.91180    0.52350    0.52350   1.00
O2       1.02350    0.47650    0.58820   1.00
O2       1.08820    0.47650    0.52350   1.00
O2       1.02350    0.41180    0.52350   1.00
O2       1.02350    0.58820    0.47650   1.00
O2       1.08820    0.52350    0.47650   1.00
O2       1.02350    0.52350    0.41180   1.00
O2       0.91180    0.47650    0.47650   1.00
O2       0.97650    0.41180    0.47650   1.00
O2       0.97650    0.47650    0.41180   1.00
C1       1.00000    0.50000    0.60520   1.00
C1       1.00000    0.60520    0.50000   1.00
C1       0.89480    0.50000    0.50000   1.00
C1       1.10520    0.50000    0.50000   1.00
C1       1.00000    0.39480    0.50000   1.00
C1       1.00000    0.50000    0.39480   1.00
O1       0.50000    0.50000    0.50000   1.00
Zn1      0.53280    0.46720    0.46720   1.00
Zn1      0.46720    0.53280    0.46720   1.00
Zn1      0.46720    0.46720    0.53280   1.00
Zn1      0.53280    0.53280    0.53280   1.00
O2       0.52350    0.47650    0.41180   1.00
O2       0.52350    0.41180    0.47650   1.00
O2       0.58820    0.47650    0.47650   1.00
O2       0.47650    0.52350    0.41180   1.00
O2       0.41180    0.52350    0.47650   1.00
O2       0.47650    0.58820    0.47650   1.00
O2       0.47650    0.41180    0.52350   1.00
O2       0.41180    0.47650    0.52350   1.00
O2       0.47650    0.47650    0.58820   1.00
O2       0.58820    0.52350    0.52350   1.00
O2       0.52350    0.58820    0.52350   1.00
O2       0.52350    0.52350    0.58820   1.00
C1       0.50000    0.50000    0.39480   1.00
C1       0.50000    0.39480    0.50000   1.00
C1       0.60520    0.50000    0.50000   1.00
C1       0.39480    0.50000    0.50000   1.00
C1       0.50000    0.60520    0.50000   1.00
C1       0.50000    0.50000    0.60520   1.00
O1       1.00000    1.00000    0.50000   1.00
Zn1      1.03280    0.96720    0.46720   1.00
Zn1      0.96720    1.03280    0.46720   1.00
Zn1      0.96720    0.96720    0.53280   1.00
Zn1      1.03280    1.03280    0.53280   1.00
O2       1.02350    0.97650    0.41180   1.00
O2       1.02350    0.91180    0.47650   1.00
O2       1.08820    0.97650    0.47650   1.00
O2       0.97650    1.02350    0.41180   1.00
O2       0.91180    1.02350    0.47650   1.00
O2       0.97650    1.08820    0.47650   1.00
O2       0.97650    0.91180    0.52350   1.00
O2       0.91180    0.97650    0.52350   1.00
O2       0.97650    0.97650    0.58820   1.00
O2       1.08820    1.02350    0.52350   1.00
O2       1.02350    1.08820    0.52350   1.00
O2       1.02350    1.02350    0.58820   1.00
C1       1.00000    1.00000    0.39480   1.00
C1       1.00000    0.89480    0.50000   1.00
C1       1.10520    1.00000    0.50000   1.00
C1       0.89480    1.00000    0.50000   1.00
C1       1.00000    1.10520    0.50000   1.00
C1       1.00000    1.00000    0.60520   1.00
O1       1.00000    0.50000    1.00000   1.00
Zn1      1.03280    0.46720    0.96720   1.00
Zn1      0.96720    0.53280    0.96720   1.00
Zn1      0.96720    0.46720    1.03280   1.00
Zn1      1.03280    0.53280    1.03280   1.00
O2       1.02350    0.47650    0.91180   1.00
O2       1.02350    0.41180    0.97650   1.00
O2       1.08820    0.47650    0.97650   1.00
O2       0.97650    0.52350    0.91180   1.00
O2       0.91180    0.52350    0.97650   1.00
O2       0.97650    0.58820    0.97650   1.00
O2       0.97650    0.41180    1.02350   1.00
O2       0.91180    0.47650    1.02350   1.00
O2       0.97650    0.47650    1.08820   1.00
O2       1.08820    0.52350    1.02350   1.00
O2       1.02350    0.58820    1.02350   1.00
O2       1.02350    0.52350    1.08820   1.00
C1       1.00000    0.50000    0.89480   1.00
C1       1.00000    0.39480    1.00000   1.00
C1       1.10520    0.50000    1.00000   1.00
C1       0.89480    0.50000    1.00000   1.00
C1       1.00000    0.60520    1.00000   1.00
C1       1.00000    0.50000    1.10520   1.00
O1       0.50000    1.00000    1.00000   1.00
Zn1      0.53280    0.96720    0.96720   1.00
Zn1      0.46720    1.03280    0.96720   1.00
Zn1      0.46720    0.96720    1.03280   1.00
Zn1      0.53280    1.03280    1.03280   1.00
O2       0.52350    0.97650    0.91180   1.00
O2       0.52350    0.91180    0.97650   1.00
O2       0.58820    0.97650    0.97650   1.00
O2       0.47650    1.02350    0.91180   1.00
O2       0.41180    1.02350    0.97650   1.00
O2       0.47650    1.08820    0.97650   1.00
O2       0.47650    0.91180    1.02350   1.00
O2       0.41180    0.97650    1.02350   1.00
O2       0.47650    0.97650    1.08820   1.00
O2       0.58820    1.02350    1.02350   1.00
O2       0.52350    1.08820    1.02350   1.00
O2       0.52350    1.02350    1.08820   1.00
C1       0.50000    1.00000    0.89480   1.00
C1       0.50000    0.89480    1.00000   1.00
C1       0.60520    1.00000    1.00000   1.00
C1       0.39480    1.00000    1.00000   1.00
C1       0.50000    1.10520    1.00000   1.00
C1       0.50000    1.00000    1.10520   1.00
C4       0.75230    0.74580    0.98025   1.00
C4       0.75166    0.74439    1.02191   1.00
C3       0.78473    0.76080    0.95897   1.00
C3       0.78484    0.75401    1.04504   1.00
C3       0.71950    0.73185    0.95854   1.00
C3       0.71675    0.73293    1.04170   1.00
C2       0.75445    0.74690    0.89595   1.00
C2       0.74981    0.74341    1.10622   1.00
C3       0.78592    0.76118    0.91811   1.00
C3       0.78397    0.75375    1.08591   1.00
C3       0.72197    0.73255    0.91696   1.00
C3       0.71700    0.73325    1.08336   1.00
H1       0.80854    0.77237    0.97237   1.00
H1       0.81102    0.76120    1.03306   1.00
C5       0.68536    0.71793    0.97835   1.00
C5       0.68291    0.72135    1.01998   1.00
H1       0.81022    0.77224    0.90451   1.00
H1       0.80884    0.76114    1.10091   1.00
H1       0.69934    0.72264    0.90052   1.00
H1       0.69266    0.72554    1.09848   1.00
C6       0.65262    0.69944    0.95515   1.00
C6       0.64498    0.71332    1.04119   1.00
H2       0.66507    0.67981    0.93345   1.00
H2       0.64037    0.73589    1.06310   1.00
H2       0.63556    0.67941    0.97286   1.00
H2       0.61986    0.71752    1.02228   1.00
C6       0.62451    0.73007    0.93606   1.00
C6       0.64304    0.67141    1.05942   1.00
H2       0.64165    0.75355    0.92292   1.00
H2       0.67071    0.66475    1.07383   1.00
C6       0.59505    0.71496    0.90459   1.00
C6       0.60939    0.66285    1.08911   1.00
H2       0.60790    0.74391    0.95949   1.00
H2       0.64080    0.65050    1.03546   1.00
C6       0.61632    0.70046    0.86735   1.00
C6       0.61401    0.68706    1.12708   1.00
C6       0.56896    0.68176    0.92074   1.00
C6       0.56875    0.67101    1.07107   1.00
C6       0.56807    0.74928    0.89245   1.00
C6       0.61106    0.61903    1.10054   1.00
H2       0.63549    0.72304    0.85558   1.00
H2       0.64269    0.68243    1.14020   1.00
H2       0.63402    0.67475    0.87330   1.00
H2       0.61072    0.71817    1.12154   1.00
H2       0.59551    0.69254    0.84459   1.00
H2       0.59203    0.67892    1.14863   1.00
H2       0.54671    0.67336    0.89955   1.00
H2       0.54545    0.66232    1.09098   1.00
H2       0.58622    0.65585    0.92725   1.00
H2       0.56502    0.70200    1.06494   1.00
H2       0.55427    0.69094    0.94745   1.00
H2       0.56506    0.65493    1.04385   1.00
H2       0.58505    0.77341    0.88042   1.00
H2       0.63910    0.61179    1.11383   1.00
H2       0.54708    0.74021    0.87025   1.00
H2       0.58822    0.61165    1.12149   1.00
H2       0.55162    0.76030    0.91739   1.00
H2       0.60717    0.60037    1.07502   1.00
C4       0.74580    0.98025    0.75230   1.00
C4       0.74439    1.02191    0.75166   1.00
C3       0.76080    0.95897    0.78473   1.00
C3       0.75401    1.04504    0.78484   1.00
C3       0.73185    0.95854    0.71950   1.00
C3       0.73293    1.04170    0.71675   1.00
C2       0.74690    0.89595    0.75445   1.00
C2       0.74341    1.10622    0.74981   1.00
C3       0.76118    0.91811    0.78592   1.00
C3       0.75375    1.08591    0.78397   1.00
C3       0.73255    0.91696    0.72197   1.00
C3       0.73325    1.08336    0.71700   1.00
H1       0.77237    0.97237    0.80854   1.00
H1       0.76120    1.03306    0.81102   1.00
C5       0.71793    0.97835    0.68536   1.00
C5       0.72135    1.01998    0.68291   1.00
H1       0.77224    0.90451    0.81022   1.00
H1       0.76114    1.10091    0.80884   1.00
H1       0.72264    0.90052    0.69934   1.00
H1       0.72554    1.09848    0.69266   1.00
C6       0.69944    0.95515    0.65262   1.00
C6       0.71332    1.04119    0.64498   1.00
H2       0.67981    0.93345    0.66507   1.00
H2       0.73589    1.06310    0.64037   1.00
H2       0.67941    0.97286    0.63556   1.00
H2       0.71752    1.02228    0.61986   1.00
C6       0.73007    0.93606    0.62451   1.00
C6       0.67141    1.05942    0.64304   1.00
H2       0.75355    0.92292    0.64165   1.00
H2       0.66475    1.07383    0.67071   1.00
C6       0.71496    0.90459    0.59505   1.00
C6       0.66285    1.08911    0.60939   1.00
H2       0.74391    0.95949    0.60790   1.00
H2       0.65050    1.03546    0.64080   1.00
C6       0.70046    0.86735    0.61632   1.00
C6       0.68706    1.12708    0.61401   1.00
C6       0.68176    0.92074    0.56896   1.00
C6       0.67101    1.07107    0.56875   1.00
C6       0.74928    0.89245    0.56807   1.00
C6       0.61903    1.10054    0.61106   1.00
H2       0.72304    0.85558    0.63549   1.00
H2       0.68243    1.14020    0.64269   1.00
H2       0.67475    0.87330    0.63402   1.00
H2       0.71817    1.12154    0.61072   1.00
H2       0.69254    0.84459    0.59551   1.00
H2       0.67892    1.14863    0.59203   1.00
H2       0.67336    0.89955    0.54671   1.00
H2       0.66232    1.09098    0.54545   1.00
H2       0.65585    0.92725    0.58622   1.00
H2       0.70200    1.06494    0.56502   1.00
H2       0.69094    0.94745    0.55427   1.00
H2       0.65493    1.04385    0.56506   1.00
H2       0.77341    0.88042    0.58505   1.00
H2       0.61179    1.11383    0.63910   1.00
H2       0.74021    0.87025    0.54708   1.00
H2       0.61165    1.12149    0.58822   1.00
H2       0.76030    0.91739    0.55162   1.00
H2       0.60037    1.07502    0.60717   1.00
C4       0.51975    0.75230    0.75420   1.00
C4       0.47809    0.75166    0.75561   1.00
C3       0.54103    0.78473    0.73920   1.00
C3       0.45496    0.78484    0.74599   1.00
C3       0.54146    0.71950    0.76815   1.00
C3       0.45830    0.71675    0.76707   1.00
C2       0.60405    0.75445    0.75310   1.00
C2       0.39378    0.74981    0.75659   1.00
C3       0.58189    0.78592    0.73882   1.00
C3       0.41409    0.78397    0.74625   1.00
C3       0.58304    0.72197    0.76745   1.00
C3       0.41664    0.71700    0.76675   1.00
H1       0.52763    0.80854    0.72763   1.00
H1       0.46694    0.81102    0.73880   1.00
C5       0.52165    0.68536    0.78207   1.00
C5       0.48002    0.68291    0.77865   1.00
H1       0.59549    0.81022    0.72776   1.00
H1       0.39909    0.80884    0.73886   1.00
H1       0.59948    0.69934    0.77736   1.00
H1       0.40152    0.69266    0.77446   1.00
C6       0.54485    0.65262    0.80056   1.00
C6       0.45881    0.64498    0.78668   1.00
H2       0.56655    0.66507    0.82019   1.00
H2       0.43690    0.64037    0.76411   1.00
H2       0.52714    0.63556    0.82059   1.00
H2       0.47772    0.61986    0.78248   1.00
C6       0.56394    0.62451    0.76993   1.00
C6       0.44058    0.64304    0.82859   1.00
H2       0.57708    0.64165    0.74645   1.00
H2       0.42617    0.67071    0.83525   1.00
C6       0.59541    0.59505    0.78504   1.00
C6       0.41089    0.60939    0.83715   1.00
H2       0.54051    0.60790    0.75609   1.00
H2       0.46454    0.64080    0.84950   1.00
C6       0.63265    0.61632    0.79954   1.00
C6       0.37292    0.61401    0.81294   1.00
C6       0.57926    0.56896    0.81824   1.00
C6       0.42893    0.56875    0.82899   1.00
C6       0.60755    0.56807    0.75072   1.00
C6       0.39946    0.61106    0.88097   1.00
H2       0.64442    0.63549    0.77696   1.00
H2       0.35980    0.64269    0.81757   1.00
H2       0.62670    0.63402    0.82525   1.00
H2       0.37846    0.61072    0.78183   1.00
H2       0.65541    0.59551    0.80746   1.00
H2       0.35137    0.59203    0.82108   1.00
H2       0.60045    0.54671    0.82664   1.00
H2       0.40902    0.54545    0.83768   1.00
H2       0.57275    0.58622    0.84415   1.00
H2       0.43506    0.56502    0.79800   1.00
H2       0.55255    0.55427    0.80906   1.00
H2       0.45615    0.56506    0.84507   1.00
H2       0.61958    0.58505    0.72659   1.00
H2       0.38617    0.63910    0.88821   1.00
H2       0.62975    0.54708    0.75979   1.00
H2       0.37851    0.58822    0.88835   1.00
H2       0.58261    0.55162    0.73970   1.00
H2       0.42498    0.60717    0.89963   1.00
C4       0.98025    0.75230    0.74580   1.00
C4       1.02191    0.75166    0.74439   1.00
C3       0.95897    0.78473    0.76080   1.00
C3       1.04504    0.78484    0.75401   1.00
C3       0.95854    0.71950    0.73185   1.00
C3       1.04170    0.71675    0.73293   1.00
C2       0.89595    0.75445    0.74690   1.00
C2       1.10622    0.74981    0.74341   1.00
C3       0.91811    0.78592    0.76118   1.00
C3       1.08591    0.78397    0.75375   1.00
C3       0.91696    0.72197    0.73255   1.00
C3       1.08336    0.71700    0.73325   1.00
H1       0.97237    0.80854    0.77237   1.00
H1       1.03306    0.81102    0.76120   1.00
C5       0.97835    0.68536    0.71793   1.00
C5       1.01998    0.68291    0.72135   1.00
H1       0.90451    0.81022    0.77224   1.00
H1       1.10091    0.80884    0.76114   1.00
H1       0.90052    0.69934    0.72264   1.00
H1       1.09848    0.69266    0.72554   1.00
C6       0.95515    0.65262    0.69944   1.00
C6       1.04119    0.64498    0.71332   1.00
H2       0.93345    0.66507    0.67981   1.00
H2       1.06310    0.64037    0.73589   1.00
H2       0.97286    0.63556    0.67941   1.00
H2       1.02228    0.61986    0.71752   1.00
C6       0.93606    0.62451    0.73007   1.00
C6       1.05942    0.64304    0.67141   1.00
H2       0.92292    0.64165    0.75355   1.00
H2       1.07383    0.67071    0.66475   1.00
C6       0.90459    0.59505    0.71496   1.00
C6       1.08911    0.60939    0.66285   1.00
H2       0.95949    0.60790    0.74391   1.00
H2       1.03546    0.64080    0.65050   1.00
C6       0.86735    0.61632    0.70046   1.00
C6       1.12708    0.61401    0.68706   1.00
C6       0.92074    0.56896    0.68176   1.00
C6       1.07107    0.56875    0.67101   1.00
C6       0.89245    0.56807    0.74928   1.00
C6       1.10054    0.61106    0.61903   1.00
H2       0.85558    0.63549    0.72304   1.00
H2       1.14020    0.64269    0.68243   1.00
H2       0.87330    0.63402    0.67475   1.00
H2       1.12154    0.61072    0.71817   1.00
H2       0.84459    0.59551    0.69254   1.00
H2       1.14863    0.59203    0.67892   1.00
H2       0.89955    0.54671    0.67336   1.00
H2       1.09098    0.54545    0.66232   1.00
H2       0.92725    0.58622    0.65585   1.00
H2       1.06494    0.56502    0.70200   1.00
H2       0.94745    0.55427    0.69094   1.00
H2       1.04385    0.56506    0.65493   1.00
H2       0.88042    0.58505    0.77341   1.00
H2       1.11383    0.63910    0.61179   1.00
H2       0.87025    0.54708    0.74021   1.00
H2       1.12149    0.58822    0.61165   1.00
H2       0.91739    0.55162    0.76030   1.00
H2       1.07502    0.60717    0.60037   1.00
C4       0.75420    0.51975    0.75230   1.00
C4       0.75561    0.47809    0.75166   1.00
C3       0.73920    0.54103    0.78473   1.00
C3       0.74599    0.45496    0.78484   1.00
C3       0.76815    0.54146    0.71950   1.00
C3       0.76707    0.45830    0.71675   1.00
C2       0.75310    0.60405    0.75445   1.00
C2       0.75659    0.39378    0.74981   1.00
C3       0.73882    0.58189    0.78592   1.00
C3       0.74625    0.41409    0.78397   1.00
C3       0.76745    0.58304    0.72197   1.00
C3       0.76675    0.41664    0.71700   1.00
H1       0.72763    0.52763    0.80854   1.00
H1       0.73880    0.46694    0.81102   1.00
C5       0.78207    0.52165    0.68536   1.00
C5       0.77865    0.48002    0.68291   1.00
H1       0.72776    0.59549    0.81022   1.00
H1       0.73886    0.39909    0.80884   1.00
H1       0.77736    0.59948    0.69934   1.00
H1       0.77446    0.40152    0.69266   1.00
C6       0.80056    0.54485    0.65262   1.00
C6       0.78668    0.45881    0.64498   1.00
H2       0.82019    0.56655    0.66507   1.00
H2       0.76411    0.43690    0.64037   1.00
H2       0.82059    0.52714    0.63556   1.00
H2       0.78248    0.47772    0.61986   1.00
C6       0.76993    0.56394    0.62451   1.00
C6       0.82859    0.44058    0.64304   1.00
H2       0.74645    0.57708    0.64165   1.00
H2       0.83525    0.42617    0.67071   1.00
C6       0.78504    0.59541    0.59505   1.00
C6       0.83715    0.41089    0.60939   1.00
H2       0.75609    0.54051    0.60790   1.00
H2       0.84950    0.46454    0.64080   1.00
C6       0.79954    0.63265    0.61632   1.00
C6       0.81294    0.37292    0.61401   1.00
C6       0.81824    0.57926    0.56896   1.00
C6       0.82899    0.42893    0.56875   1.00
C6       0.75072    0.60755    0.56807   1.00
C6       0.88097    0.39946    0.61106   1.00
H2       0.77696    0.64442    0.63549   1.00
H2       0.81757    0.35980    0.64269   1.00
H2       0.82525    0.62670    0.63402   1.00
H2       0.78183    0.37846    0.61072   1.00
H2       0.80746    0.65541    0.59551   1.00
H2       0.82108    0.35137    0.59203   1.00
H2       0.82664    0.60045    0.54671   1.00
H2       0.83768    0.40902    0.54545   1.00
H2       0.84415    0.57275    0.58622   1.00
H2       0.79800    0.43506    0.56502   1.00
H2       0.80906    0.55255    0.55427   1.00
H2       0.84507    0.45615    0.56506   1.00
H2       0.72659    0.61958    0.58505   1.00
H2       0.88821    0.38617    0.63910   1.00
H2       0.75979    0.62975    0.54708   1.00
H2       0.88835    0.37851    0.58822   1.00
H2       0.73970    0.58261    0.55162   1.00
H2       0.89963    0.42498    0.60717   1.00
C4       0.75230    0.75420    0.51975   1.00
C4       0.75166    0.75561    0.47809   1.00
C3       0.78473    0.73920    0.54103   1.00
C3       0.78484    0.74599    0.45496   1.00
C3       0.71950    0.76815    0.54146   1.00
C3       0.71675    0.76707    0.45830   1.00
C2       0.75445    0.75310    0.60405   1.00
C2       0.74981    0.75659    0.39378   1.00
C3       0.78592    0.73882    0.58189   1.00
C3       0.78397    0.74625    0.41409   1.00
C3       0.72197    0.76745    0.58304   1.00
C3       0.71700    0.76675    0.41664   1.00
H1       0.80854    0.72763    0.52763   1.00
H1       0.81102    0.73880    0.46694   1.00
C5       0.68536    0.78207    0.52165   1.00
C5       0.68291    0.77865    0.48002   1.00
H1       0.81022    0.72776    0.59549   1.00
H1       0.80884    0.73886    0.39909   1.00
H1       0.69934    0.77736    0.59948   1.00
H1       0.69266    0.77446    0.40152   1.00
C6       0.65262    0.80056    0.54485   1.00
C6       0.64498    0.78668    0.45881   1.00
H2       0.66507    0.82019    0.56655   1.00
H2       0.64037    0.76411    0.43690   1.00
H2       0.63556    0.82059    0.52714   1.00
H2       0.61986    0.78248    0.47772   1.00
C6       0.62451    0.76993    0.56394   1.00
C6       0.64304    0.82859    0.44058   1.00
H2       0.64165    0.74645    0.57708   1.00
H2       0.67071    0.83525    0.42617   1.00
C6       0.59505    0.78504    0.59541   1.00
C6       0.60939    0.83715    0.41089   1.00
H2       0.60790    0.75609    0.54051   1.00
H2       0.64080    0.84950    0.46454   1.00
C6       0.61632    0.79954    0.63265   1.00
C6       0.61401    0.81294    0.37292   1.00
C6       0.56896    0.81824    0.57926   1.00
C6       0.56875    0.82899    0.42893   1.00
C6       0.56807    0.75072    0.60755   1.00
C6       0.61106    0.88097    0.39946   1.00
H2       0.63549    0.77696    0.64442   1.00
H2       0.64269    0.81757    0.35980   1.00
H2       0.63402    0.82525    0.62670   1.00
H2       0.61072    0.78183    0.37846   1.00
H2       0.59551    0.80746    0.65541   1.00
H2       0.59203    0.82108    0.35137   1.00
H2       0.54671    0.82664    0.60045   1.00
H2       0.54545    0.83768    0.40902   1.00
H2       0.58622    0.84415    0.57275   1.00
H2       0.56502    0.79800    0.43506   1.00
H2       0.55427    0.80906    0.55255   1.00
H2       0.56506    0.84507    0.45615   1.00
H2       0.58505    0.72659    0.61958   1.00
H2       0.63910    0.88821    0.38617   1.00
H2       0.54708    0.75979    0.62975   1.00
H2       0.58822    0.88835    0.37851   1.00
H2       0.55162    0.73970    0.58261   1.00
H2       0.60717    0.89963    0.42498   1.00
C4       0.25230    0.24580    0.98025   1.00
C4       0.25166    0.24439    1.02191   1.00
C3       0.28473    0.26080    0.95897   1.00
C3       0.28484    0.25401    1.04504   1.00
C3       0.21950    0.23185    0.95854   1.00
C3       0.21675    0.23293    1.04170   1.00
C2       0.25445    0.24690    0.89595   1.00
C2       0.24981    0.24341    1.10622   1.00
C3       0.28592    0.26118    0.91811   1.00
C3       0.28397    0.25375    1.08591   1.00
C3       0.22197    0.23255    0.91696   1.00
C3       0.21700    0.23325    1.08336   1.00
H1       0.30854    0.27237    0.97237   1.00
H1       0.31102    0.26120    1.03306   1.00
C5       0.18536    0.21793    0.97835   1.00
C5       0.18291    0.22135    1.01998   1.00
H1       0.31022    0.27224    0.90451   1.00
H1       0.30884    0.26114    1.10091   1.00
H1       0.19934    0.22264    0.90052   1.00
H1       0.19266    0.22554    1.09848   1.00
C6       0.15262    0.19944    0.95515   1.00
C6       0.14498    0.21332    1.04119   1.00
H2       0.16507    0.17981    0.93345   1.00
H2       0.14037    0.23589    1.06310   1.00
H2       0.13556    0.17941    0.97286   1.00
H2       0.11986    0.21752    1.02228   1.00
C6       0.12451    0.23007    0.93606   1.00
C6       0.14304    0.17141    1.05942   1.00
H2       0.14165    0.25355    0.92292   1.00
H2       0.17071    0.16475    1.07383   1.00
C6       0.09505    0.21496    0.90459   1.00
C6       0.10939    0.16285    1.08911   1.00
H2       0.10790    0.24391    0.95949   1.00
H2       0.14080    0.15050    1.03546   1.00
C6       0.11632    0.20046    0.86735   1.00
C6       0.11401    0.18706    1.12708   1.00
C6       0.06896    0.18176    0.92074   1.00
C6       0.06875    0.17101    1.07107   1.00
C6       0.06807    0.24928    0.89245   1.00
C6       0.11106    0.11903    1.10054   1.00
H2       0.13549    0.22304    0.85558   1.00
H2       0.14269    0.18243    1.14020   1.00
H2       0.13402    0.17475    0.87330   1.00
H2       0.11072    0.21817    1.12154   1.00
H2       0.09551    0.19254    0.84459   1.00
H2       0.09203    0.17892    1.14863   1.00
H2       0.04671    0.17336    0.89955   1.00
H2       0.04545    0.16232    1.09098   1.00
H2       0.08622    0.15585    0.92725   1.00
H2       0.06502    0.20200    1.06494   1.00
H2       0.05427    0.19094    0.94745   1.00
H2       0.06506    0.15493    1.04385   1.00
H2       0.08505    0.27341    0.88042   1.00
H2       0.13910    0.11179    1.11383   1.00
H2       0.04708    0.24021    0.87025   1.00
H2       0.08822    0.11165    1.12149   1.00
H2       0.05162    0.26030    0.91739   1.00
H2       0.10717    0.10037    1.07502   1.00
C4       0.24580    0.48025    0.75230   1.00
C4       0.24439    0.52191    0.75166   1.00
C3       0.26080    0.45897    0.78473   1.00
C3       0.25401    0.54504    0.78484   1.00
C3       0.23185    0.45854    0.71950   1.00
C3       0.23293    0.54170    0.71675   1.00
C2       0.24690    0.39595    0.75445   1.00
C2       0.24341    0.60622    0.74981   1.00
C3       0.26118    0.41811    0.78592   1.00
C3       0.25375    0.58591    0.78397   1.00
C3       0.23255    0.41696    0.72197   1.00
C3       0.23325    0.58336    0.71700   1.00
H1       0.27237    0.47237    0.80854   1.00
H1       0.26120    0.53306    0.81102   1.00
C5       0.21793    0.47835    0.68536   1.00
C5       0.22135    0.51998    0.68291   1.00
H1       0.27224    0.40451    0.81022   1.00
H1       0.26114    0.60091    0.80884   1.00
H1       0.22264    0.40052    0.69934   1.00
H1       0.22554    0.59848    0.69266   1.00
C6       0.19944    0.45515    0.65262   1.00
C6       0.21332    0.54119    0.64498   1.00
H2       0.17981    0.43345    0.66507   1.00
H2       0.23589    0.56310    0.64037   1.00
H2       0.17941    0.47286    0.63556   1.00
H2       0.21752    0.52228    0.61986   1.00
C6       0.23007    0.43606    0.62451   1.00
C6       0.17141    0.55942    0.64304   1.00
H2       0.25355    0.42292    0.64165   1.00
H2       0.16475    0.57383    0.67071   1.00
C6       0.21496    0.40459    0.59505   1.00
C6       0.16285    0.58911    0.60939   1.00
H2       0.24391    0.45949    0.60790   1.00
H2       0.15050    0.53546    0.64080   1.00
C6       0.20046    0.36735    0.61632   1.00
C6       0.18706    0.62708    0.61401   1.00
C6       0.18176    0.42074    0.56896   1.00
C6       0.17101    0.57107    0.56875   1.00
C6       0.24928    0.39245    0.56807   1.00
C6       0.11903    0.60054    0.61106   1.00
H2       0.22304    0.35558    0.63549   1.00
H2       0.18243    0.64020    0.64269   1.00
H2       0.17475    0.37330    0.63402   1.00
H2       0.21817    0.62154    0.61072   1.00
H2       0.19254    0.34459    0.59551   1.00
H2       0.17892    0.64863    0.59203   1.00
H2       0.17336    0.39955    0.54671   1.00
H2       0.16232    0.59098    0.54545   1.00
H2       0.15585    0.42725    0.58622   1.00
H2       0.20200    0.56494    0.56502   1.00
H2       0.19094    0.44745    0.55427   1.00
H2       0.15493    0.54385    0.56506   1.00
H2       0.27341    0.38042    0.58505   1.00
H2       0.11179    0.61383    0.63910   1.00
H2       0.24021    0.37025    0.54708   1.00
H2       0.11165    0.62149    0.58822   1.00
H2       0.26030    0.41739    0.55162   1.00
H2       0.10037    0.57502    0.60717   1.00
C4       0.01975    0.25230    0.75420   1.00
C4       -0.02191   0.25166    0.75561   1.00
C3       0.04103    0.28473    0.73920   1.00
C3       -0.04504   0.28484    0.74599   1.00
C3       0.04146    0.21950    0.76815   1.00
C3       -0.04170   0.21675    0.76707   1.00
C2       0.10405    0.25445    0.75310   1.00
C2       -0.10622   0.24981    0.75659   1.00
C3       0.08189    0.28592    0.73882   1.00
C3       -0.08591   0.28397    0.74625   1.00
C3       0.08304    0.22197    0.76745   1.00
C3       -0.08336   0.21700    0.76675   1.00
H1       0.02763    0.30854    0.72763   1.00
H1       -0.03306   0.31102    0.73880   1.00
C5       0.02165    0.18536    0.78207   1.00
C5       -0.01998   0.18291    0.77865   1.00
H1       0.09549    0.31022    0.72776   1.00
H1       -0.10091   0.30884    0.73886   1.00
H1       0.09948    0.19934    0.77736   1.00
H1       -0.09848   0.19266    0.77446   1.00
C6       0.04485    0.15262    0.80056   1.00
C6       -0.04119   0.14498    0.78668   1.00
H2       0.06655    0.16507    0.82019   1.00
H2       -0.06310   0.14037    0.76411   1.00
H2       0.02714    0.13556    0.82059   1.00
H2       -0.02228   0.11986    0.78248   1.00
C6       0.06394    0.12451    0.76993   1.00
C6       -0.05942   0.14304    0.82859   1.00
H2       0.07708    0.14165    0.74645   1.00
H2       -0.07383   0.17071    0.83525   1.00
C6       0.09541    0.09505    0.78504   1.00
C6       -0.08911   0.10939    0.83715   1.00
H2       0.04051    0.10790    0.75609   1.00
H2       -0.03546   0.14080    0.84950   1.00
C6       0.13265    0.11632    0.79954   1.00
C6       -0.12708   0.11401    0.81294   1.00
C6       0.07926    0.06896    0.81824   1.00
C6       -0.07107   0.06875    0.82899   1.00
C6       0.10755    0.06807    0.75072   1.00
C6       -0.10054   0.11106    0.88097   1.00
H2       0.14442    0.13549    0.77696   1.00
H2       -0.14020   0.14269    0.81757   1.00
H2       0.12670    0.13402    0.82525   1.00
H2       -0.12154   0.11072    0.78183   1.00
H2       0.15541    0.09551    0.80746   1.00
H2       -0.14863   0.09203    0.82108   1.00
H2       0.10045    0.04671    0.82664   1.00
H2       -0.09098   0.04545    0.83768   1.00
H2       0.07275    0.08622    0.84415   1.00
H2       -0.06494   0.06502    0.79800   1.00
H2       0.05255    0.05427    0.80906   1.00
H2       -0.04385   0.06506    0.84507   1.00
H2       0.11958    0.08505    0.72659   1.00
H2       -0.11383   0.13910    0.88821   1.00
H2       0.12975    0.04708    0.75979   1.00
H2       -0.12149   0.08822    0.88835   1.00
H2       0.08261    0.05162    0.73970   1.00
H2       -0.07502   0.10717    0.89963   1.00
C4       0.48025    0.25230    0.74580   1.00
C4       0.52191    0.25166    0.74439   1.00
C3       0.45897    0.28473    0.76080   1.00
C3       0.54504    0.28484    0.75401   1.00
C3       0.45854    0.21950    0.73185   1.00
C3       0.54170    0.21675    0.73293   1.00
C2       0.39595    0.25445    0.74690   1.00
C2       0.60622    0.24981    0.74341   1.00
C3       0.41811    0.28592    0.76118   1.00
C3       0.58591    0.28397    0.75375   1.00
C3       0.41696    0.22197    0.73255   1.00
C3       0.58336    0.21700    0.73325   1.00
H1       0.47237    0.30854    0.77237   1.00
H1       0.53306    0.31102    0.76120   1.00
C5       0.47835    0.18536    0.71793   1.00
C5       0.51998    0.18291    0.72135   1.00
H1       0.40451    0.31022    0.77224   1.00
H1       0.60091    0.30884    0.76114   1.00
H1       0.40052    0.19934    0.72264   1.00
H1       0.59848    0.19266    0.72554   1.00
C6       0.45515    0.15262    0.69944   1.00
C6       0.54119    0.14498    0.71332   1.00
H2       0.43345    0.16507    0.67981   1.00
H2       0.56310    0.14037    0.73589   1.00
H2       0.47286    0.13556    0.67941   1.00
H2       0.52228    0.11986    0.71752   1.00
C6       0.43606    0.12451    0.73007   1.00
C6       0.55942    0.14304    0.67141   1.00
H2       0.42292    0.14165    0.75355   1.00
H2       0.57383    0.17071    0.66475   1.00
C6       0.40459    0.09505    0.71496   1.00
C6       0.58911    0.10939    0.66285   1.00
H2       0.45949    0.10790    0.74391   1.00
H2       0.53546    0.14080    0.65050   1.00
C6       0.36735    0.11632    0.70046   1.00
C6       0.62708    0.11401    0.68706   1.00
C6       0.42074    0.06896    0.68176   1.00
C6       0.57107    0.06875    0.67101   1.00
C6       0.39245    0.06807    0.74928   1.00
C6       0.60054    0.11106    0.61903   1.00
H2       0.35558    0.13549    0.72304   1.00
H2       0.64020    0.14269    0.68243   1.00
H2       0.37330    0.13402    0.67475   1.00
H2       0.62154    0.11072    0.71817   1.00
H2       0.34459    0.09551    0.69254   1.00
H2       0.64863    0.09203    0.67892   1.00
H2       0.39955    0.04671    0.67336   1.00
H2       0.59098    0.04545    0.66232   1.00
H2       0.42725    0.08622    0.65585   1.00
H2       0.56494    0.06502    0.70200   1.00
H2       0.44745    0.05427    0.69094   1.00
H2       0.54385    0.06506    0.65493   1.00
H2       0.38042    0.08505    0.77341   1.00
H2       0.61383    0.13910    0.61179   1.00
H2       0.37025    0.04708    0.74021   1.00
H2       0.62149    0.08822    0.61165   1.00
H2       0.41739    0.05162    0.76030   1.00
H2       0.57502    0.10717    0.60037   1.00
C4       0.25420    0.01975    0.75230   1.00
C4       0.25561    -0.02191   0.75166   1.00
C3       0.23920    0.04103    0.78473   1.00
C3       0.24599    -0.04504   0.78484   1.00
C3       0.26815    0.04146    0.71950   1.00
C3       0.26707    -0.04170   0.71675   1.00
C2       0.25310    0.10405    0.75445   1.00
C2       0.25659    -0.10622   0.74981   1.00
C3       0.23882    0.08189    0.78592   1.00
C3       0.24625    -0.08591   0.78397   1.00
C3       0.26745    0.08304    0.72197   1.00
C3       0.26675    -0.08336   0.71700   1.00
H1       0.22763    0.02763    0.80854   1.00
H1       0.23880    -0.03306   0.81102   1.00
C5       0.28207    0.02165    0.68536   1.00
C5       0.27865    -0.01998   0.68291   1.00
H1       0.22776    0.09549    0.81022   1.00
H1       0.23886    -0.10091   0.80884   1.00
H1       0.27736    0.09948    0.69934   1.00
H1       0.27446    -0.09848   0.69266   1.00
C6       0.30056    0.04485    0.65262   1.00
C6       0.28668    -0.04119   0.64498   1.00
H2       0.32019    0.06655    0.66507   1.00
H2       0.26411    -0.06310   0.64037   1.00
H2       0.32059    0.02714    0.63556   1.00
H2       0.28248    -0.02228   0.61986   1.00
C6       0.26993    0.06394    0.62451   1.00
C6       0.32859    -0.05942   0.64304   1.00
H2       0.24645    0.07708    0.64165   1.00
H2       0.33525    -0.07383   0.67071   1.00
C6       0.28504    0.09541    0.59505   1.00
C6       0.33715    -0.08911   0.60939   1.00
H2       0.25609    0.04051    0.60790   1.00
H2       0.34950    -0.03546   0.64080   1.00
C6       0.29954    0.13265    0.61632   1.00
C6       0.31294    -0.12708   0.61401   1.00
C6       0.31824    0.07926    0.56896   1.00
C6       0.32899    -0.07107   0.56875   1.00
C6       0.25072    0.10755    0.56807   1.00
C6       0.38097    -0.10054   0.61106   1.00
H2       0.27696    0.14442    0.63549   1.00
H2       0.31757    -0.14020   0.64269   1.00
H2       0.32525    0.12670    0.63402   1.00
H2       0.28183    -0.12154   0.61072   1.00
H2       0.30746    0.15541    0.59551   1.00
H2       0.32108    -0.14863   0.59203   1.00
H2       0.32664    0.10045    0.54671   1.00
H2       0.33768    -0.09098   0.54545   1.00
H2       0.34415    0.07275    0.58622   1.00
H2       0.29800    -0.06494   0.56502   1.00
H2       0.30906    0.05255    0.55427   1.00
H2       0.34507    -0.04385   0.56506   1.00
H2       0.22659    0.11958    0.58505   1.00
H2       0.38821    -0.11383   0.63910   1.00
H2       0.25979    0.12975    0.54708   1.00
H2       0.38835    -0.12149   0.58822   1.00
H2       0.23970    0.08261    0.55162   1.00
H2       0.39963    -0.07502   0.60717   1.00
C4       0.25230    0.25420    0.51975   1.00
C4       0.25166    0.25561    0.47809   1.00
C3       0.28473    0.23920    0.54103   1.00
C3       0.28484    0.24599    0.45496   1.00
C3       0.21950    0.26815    0.54146   1.00
C3       0.21675    0.26707    0.45830   1.00
C2       0.25445    0.25310    0.60405   1.00
C2       0.24981    0.25659    0.39378   1.00
C3       0.28592    0.23882    0.58189   1.00
C3       0.28397    0.24625    0.41409   1.00
C3       0.22197    0.26745    0.58304   1.00
C3       0.21700    0.26675    0.41664   1.00
H1       0.30854    0.22763    0.52763   1.00
H1       0.31102    0.23880    0.46694   1.00
C5       0.18536    0.28207    0.52165   1.00
C5       0.18291    0.27865    0.48002   1.00
H1       0.31022    0.22776    0.59549   1.00
H1       0.30884    0.23886    0.39909   1.00
H1       0.19934    0.27736    0.59948   1.00
H1       0.19266    0.27446    0.40152   1.00
C6       0.15262    0.30056    0.54485   1.00
C6       0.14498    0.28668    0.45881   1.00
H2       0.16507    0.32019    0.56655   1.00
H2       0.14037    0.26411    0.43690   1.00
H2       0.13556    0.32059    0.52714   1.00
H2       0.11986    0.28248    0.47772   1.00
C6       0.12451    0.26993    0.56394   1.00
C6       0.14304    0.32859    0.44058   1.00
H2       0.14165    0.24645    0.57708   1.00
H2       0.17071    0.33525    0.42617   1.00
C6       0.09505    0.28504    0.59541   1.00
C6       0.10939    0.33715    0.41089   1.00
H2       0.10790    0.25609    0.54051   1.00
H2       0.14080    0.34950    0.46454   1.00
C6       0.11632    0.29954    0.63265   1.00
C6       0.11401    0.31294    0.37292   1.00
C6       0.06896    0.31824    0.57926   1.00
C6       0.06875    0.32899    0.42893   1.00
C6       0.06807    0.25072    0.60755   1.00
C6       0.11106    0.38097    0.39946   1.00
H2       0.13549    0.27696    0.64442   1.00
H2       0.14269    0.31757    0.35980   1.00
H2       0.13402    0.32525    0.62670   1.00
H2       0.11072    0.28183    0.37846   1.00
H2       0.09551    0.30746    0.65541   1.00
H2       0.09203    0.32108    0.35137   1.00
H2       0.04671    0.32664    0.60045   1.00
H2       0.04545    0.33768    0.40902   1.00
H2       0.08622    0.34415    0.57275   1.00
H2       0.06502    0.29800    0.43506   1.00
H2       0.05427    0.30906    0.55255   1.00
H2       0.06506    0.34507    0.45615   1.00
H2       0.08505    0.22659    0.61958   1.00
H2       0.13910    0.38821    0.38617   1.00
H2       0.04708    0.25979    0.62975   1.00
H2       0.08822    0.38835    0.37851   1.00
H2       0.05162    0.23970    0.58261   1.00
H2       0.10717    0.39963    0.42498   1.00
C4       0.25230    0.74580    0.48025   1.00
C4       0.25166    0.74439    0.52191   1.00
C3       0.28473    0.76080    0.45897   1.00
C3       0.28484    0.75401    0.54504   1.00
C3       0.21950    0.73185    0.45854   1.00
C3       0.21675    0.73293    0.54170   1.00
C2       0.25445    0.74690    0.39595   1.00
C2       0.24981    0.74341    0.60622   1.00
C3       0.28592    0.76118    0.41811   1.00
C3       0.28397    0.75375    0.58591   1.00
C3       0.22197    0.73255    0.41696   1.00
C3       0.21700    0.73325    0.58336   1.00
H1       0.30854    0.77237    0.47237   1.00
H1       0.31102    0.76120    0.53306   1.00
C5       0.18536    0.71793    0.47835   1.00
C5       0.18291    0.72135    0.51998   1.00
H1       0.31022    0.77224    0.40451   1.00
H1       0.30884    0.76114    0.60091   1.00
H1       0.19934    0.72264    0.40052   1.00
H1       0.19266    0.72554    0.59848   1.00
C6       0.15262    0.69944    0.45515   1.00
C6       0.14498    0.71332    0.54119   1.00
H2       0.16507    0.67981    0.43345   1.00
H2       0.14037    0.73589    0.56310   1.00
H2       0.13556    0.67941    0.47286   1.00
H2       0.11986    0.71752    0.52228   1.00
C6       0.12451    0.73007    0.43606   1.00
C6       0.14304    0.67141    0.55942   1.00
H2       0.14165    0.75355    0.42292   1.00
H2       0.17071    0.66475    0.57383   1.00
C6       0.09505    0.71496    0.40459   1.00
C6       0.10939    0.66285    0.58911   1.00
H2       0.10790    0.74391    0.45949   1.00
H2       0.14080    0.65050    0.53546   1.00
C6       0.11632    0.70046    0.36735   1.00
C6       0.11401    0.68706    0.62708   1.00
C6       0.06896    0.68176    0.42074   1.00
C6       0.06875    0.67101    0.57107   1.00
C6       0.06807    0.74928    0.39245   1.00
C6       0.11106    0.61903    0.60054   1.00
H2       0.13549    0.72304    0.35558   1.00
H2       0.14269    0.68243    0.64020   1.00
H2       0.13402    0.67475    0.37330   1.00
H2       0.11072    0.71817    0.62154   1.00
H2       0.09551    0.69254    0.34459   1.00
H2       0.09203    0.67892    0.64863   1.00
H2       0.04671    0.67336    0.39955   1.00
H2       0.04545    0.66232    0.59098   1.00
H2       0.08622    0.65585    0.42725   1.00
H2       0.06502    0.70200    0.56494   1.00
H2       0.05427    0.69094    0.44745   1.00
H2       0.06506    0.65493    0.54385   1.00
H2       0.08505    0.77341    0.38042   1.00
H2       0.13910    0.61179    0.61383   1.00
H2       0.04708    0.74021    0.37025   1.00
H2       0.08822    0.61165    0.62149   1.00
H2       0.05162    0.76030    0.41739   1.00
H2       0.10717    0.60037    0.57502   1.00
C4       0.24580    0.98025    0.25230   1.00
C4       0.24439    1.02191    0.25166   1.00
C3       0.26080    0.95897    0.28473   1.00
C3       0.25401    1.04504    0.28484   1.00
C3       0.23185    0.95854    0.21950   1.00
C3       0.23293    1.04170    0.21675   1.00
C2       0.24690    0.89595    0.25445   1.00
C2       0.24341    1.10622    0.24981   1.00
C3       0.26118    0.91811    0.28592   1.00
C3       0.25375    1.08591    0.28397   1.00
C3       0.23255    0.91696    0.22197   1.00
C3       0.23325    1.08336    0.21700   1.00
H1       0.27237    0.97237    0.30854   1.00
H1       0.26120    1.03306    0.31102   1.00
C5       0.21793    0.97835    0.18536   1.00
C5       0.22135    1.01998    0.18291   1.00
H1       0.27224    0.90451    0.31022   1.00
H1       0.26114    1.10091    0.30884   1.00
H1       0.22264    0.90052    0.19934   1.00
H1       0.22554    1.09848    0.19266   1.00
C6       0.19944    0.95515    0.15262   1.00
C6       0.21332    1.04119    0.14498   1.00
H2       0.17981    0.93345    0.16507   1.00
H2       0.23589    1.06310    0.14037   1.00
H2       0.17941    0.97286    0.13556   1.00
H2       0.21752    1.02228    0.11986   1.00
C6       0.23007    0.93606    0.12451   1.00
C6       0.17141    1.05942    0.14304   1.00
H2       0.25355    0.92292    0.14165   1.00
H2       0.16475    1.07383    0.17071   1.00
C6       0.21496    0.90459    0.09505   1.00
C6       0.16285    1.08911    0.10939   1.00
H2       0.24391    0.95949    0.10790   1.00
H2       0.15050    1.03546    0.14080   1.00
C6       0.20046    0.86735    0.11632   1.00
C6       0.18706    1.12708    0.11401   1.00
C6       0.18176    0.92074    0.06896   1.00
C6       0.17101    1.07107    0.06875   1.00
C6       0.24928    0.89245    0.06807   1.00
C6       0.11903    1.10054    0.11106   1.00
H2       0.22304    0.85558    0.13549   1.00
H2       0.18243    1.14020    0.14269   1.00
H2       0.17475    0.87330    0.13402   1.00
H2       0.21817    1.12154    0.11072   1.00
H2       0.19254    0.84459    0.09551   1.00
H2       0.17892    1.14863    0.09203   1.00
H2       0.17336    0.89955    0.04671   1.00
H2       0.16232    1.09098    0.04545   1.00
H2       0.15585    0.92725    0.08622   1.00
H2       0.20200    1.06494    0.06502   1.00
H2       0.19094    0.94745    0.05427   1.00
H2       0.15493    1.04385    0.06506   1.00
H2       0.27341    0.88042    0.08505   1.00
H2       0.11179    1.11383    0.13910   1.00
H2       0.24021    0.87025    0.04708   1.00
H2       0.11165    1.12149    0.08822   1.00
H2       0.26030    0.91739    0.05162   1.00
H2       0.10037    1.07502    0.10717   1.00
C4       0.01975    0.75230    0.25420   1.00
C4       -0.02191   0.75166    0.25561   1.00
C3       0.04103    0.78473    0.23920   1.00
C3       -0.04504   0.78484    0.24599   1.00
C3       0.04146    0.71950    0.26815   1.00
C3       -0.04170   0.71675    0.26707   1.00
C2       0.10405    0.75445    0.25310   1.00
C2       -0.10622   0.74981    0.25659   1.00
C3       0.08189    0.78592    0.23882   1.00
C3       -0.08591   0.78397    0.24625   1.00
C3       0.08304    0.72197    0.26745   1.00
C3       -0.08336   0.71700    0.26675   1.00
H1       0.02763    0.80854    0.22763   1.00
H1       -0.03306   0.81102    0.23880   1.00
C5       0.02165    0.68536    0.28207   1.00
C5       -0.01998   0.68291    0.27865   1.00
H1       0.09549    0.81022    0.22776   1.00
H1       -0.10091   0.80884    0.23886   1.00
H1       0.09948    0.69934    0.27736   1.00
H1       -0.09848   0.69266    0.27446   1.00
C6       0.04485    0.65262    0.30056   1.00
C6       -0.04119   0.64498    0.28668   1.00
H2       0.06655    0.66507    0.32019   1.00
H2       -0.06310   0.64037    0.26411   1.00
H2       0.02714    0.63556    0.32059   1.00
H2       -0.02228   0.61986    0.28248   1.00
C6       0.06394    0.62451    0.26993   1.00
C6       -0.05942   0.64304    0.32859   1.00
H2       0.07708    0.64165    0.24645   1.00
H2       -0.07383   0.67071    0.33525   1.00
C6       0.09541    0.59505    0.28504   1.00
C6       -0.08911   0.60939    0.33715   1.00
H2       0.04051    0.60790    0.25609   1.00
H2       -0.03546   0.64080    0.34950   1.00
C6       0.13265    0.61632    0.29954   1.00
C6       -0.12708   0.61401    0.31294   1.00
C6       0.07926    0.56896    0.31824   1.00
C6       -0.07107   0.56875    0.32899   1.00
C6       0.10755    0.56807    0.25072   1.00
C6       -0.10054   0.61106    0.38097   1.00
H2       0.14442    0.63549    0.27696   1.00
H2       -0.14020   0.64269    0.31757   1.00
H2       0.12670    0.63402    0.32525   1.00
H2       -0.12154   0.61072    0.28183   1.00
H2       0.15541    0.59551    0.30746   1.00
H2       -0.14863   0.59203    0.32108   1.00
H2       0.10045    0.54671    0.32664   1.00
H2       -0.09098   0.54545    0.33768   1.00
H2       0.07275    0.58622    0.34415   1.00
H2       -0.06494   0.56502    0.29800   1.00
H2       0.05255    0.55427    0.30906   1.00
H2       -0.04385   0.56506    0.34507   1.00
H2       0.11958    0.58505    0.22659   1.00
H2       -0.11383   0.63910    0.38821   1.00
H2       0.12975    0.54708    0.25979   1.00
H2       -0.12149   0.58822    0.38835   1.00
H2       0.08261    0.55162    0.23970   1.00
H2       -0.07502   0.60717    0.39963   1.00
C4       0.48025    0.75230    0.24580   1.00
C4       0.52191    0.75166    0.24439   1.00
C3       0.45897    0.78473    0.26080   1.00
C3       0.54504    0.78484    0.25401   1.00
C3       0.45854    0.71950    0.23185   1.00
C3       0.54170    0.71675    0.23293   1.00
C2       0.39595    0.75445    0.24690   1.00
C2       0.60622    0.74981    0.24341   1.00
C3       0.41811    0.78592    0.26118   1.00
C3       0.58591    0.78397    0.25375   1.00
C3       0.41696    0.72197    0.23255   1.00
C3       0.58336    0.71700    0.23325   1.00
H1       0.47237    0.80854    0.27237   1.00
H1       0.53306    0.81102    0.26120   1.00
C5       0.47835    0.68536    0.21793   1.00
C5       0.51998    0.68291    0.22135   1.00
H1       0.40451    0.81022    0.27224   1.00
H1       0.60091    0.80884    0.26114   1.00
H1       0.40052    0.69934    0.22264   1.00
H1       0.59848    0.69266    0.22554   1.00
C6       0.45515    0.65262    0.19944   1.00
C6       0.54119    0.64498    0.21332   1.00
H2       0.43345    0.66507    0.17981   1.00
H2       0.56310    0.64037    0.23589   1.00
H2       0.47286    0.63556    0.17941   1.00
H2       0.52228    0.61986    0.21752   1.00
C6       0.43606    0.62451    0.23007   1.00
C6       0.55942    0.64304    0.17141   1.00
H2       0.42292    0.64165    0.25355   1.00
H2       0.57383    0.67071    0.16475   1.00
C6       0.40459    0.59505    0.21496   1.00
C6       0.58911    0.60939    0.16285   1.00
H2       0.45949    0.60790    0.24391   1.00
H2       0.53546    0.64080    0.15050   1.00
C6       0.36735    0.61632    0.20046   1.00
C6       0.62708    0.61401    0.18706   1.00
C6       0.42074    0.56896    0.18176   1.00
C6       0.57107    0.56875    0.17101   1.00
C6       0.39245    0.56807    0.24928   1.00
C6       0.60054    0.61106    0.11903   1.00
H2       0.35558    0.63549    0.22304   1.00
H2       0.64020    0.64269    0.18243   1.00
H2       0.37330    0.63402    0.17475   1.00
H2       0.62154    0.61072    0.21817   1.00
H2       0.34459    0.59551    0.19254   1.00
H2       0.64863    0.59203    0.17892   1.00
H2       0.39955    0.54671    0.17336   1.00
H2       0.59098    0.54545    0.16232   1.00
H2       0.42725    0.58622    0.15585   1.00
H2       0.56494    0.56502    0.20200   1.00
H2       0.44745    0.55427    0.19094   1.00
H2       0.54385    0.56506    0.15493   1.00
H2       0.38042    0.58505    0.27341   1.00
H2       0.61383    0.63910    0.11179   1.00
H2       0.37025    0.54708    0.24021   1.00
H2       0.62149    0.58822    0.11165   1.00
H2       0.41739    0.55162    0.26030   1.00
H2       0.57502    0.60717    0.10037   1.00
C4       0.25420    0.51975    0.25230   1.00
C4       0.25561    0.47809    0.25166   1.00
C3       0.23920    0.54103    0.28473   1.00
C3       0.24599    0.45496    0.28484   1.00
C3       0.26815    0.54146    0.21950   1.00
C3       0.26707    0.45830    0.21675   1.00
C2       0.25310    0.60405    0.25445   1.00
C2       0.25659    0.39378    0.24981   1.00
C3       0.23882    0.58189    0.28592   1.00
C3       0.24625    0.41409    0.28397   1.00
C3       0.26745    0.58304    0.22197   1.00
C3       0.26675    0.41664    0.21700   1.00
H1       0.22763    0.52763    0.30854   1.00
H1       0.23880    0.46694    0.31102   1.00
C5       0.28207    0.52165    0.18536   1.00
C5       0.27865    0.48002    0.18291   1.00
H1       0.22776    0.59549    0.31022   1.00
H1       0.23886    0.39909    0.30884   1.00
H1       0.27736    0.59948    0.19934   1.00
H1       0.27446    0.40152    0.19266   1.00
C6       0.30056    0.54485    0.15262   1.00
C6       0.28668    0.45881    0.14498   1.00
H2       0.32019    0.56655    0.16507   1.00
H2       0.26411    0.43690    0.14037   1.00
H2       0.32059    0.52714    0.13556   1.00
H2       0.28248    0.47772    0.11986   1.00
C6       0.26993    0.56394    0.12451   1.00
C6       0.32859    0.44058    0.14304   1.00
H2       0.24645    0.57708    0.14165   1.00
H2       0.33525    0.42617    0.17071   1.00
C6       0.28504    0.59541    0.09505   1.00
C6       0.33715    0.41089    0.10939   1.00
H2       0.25609    0.54051    0.10790   1.00
H2       0.34950    0.46454    0.14080   1.00
C6       0.29954    0.63265    0.11632   1.00
C6       0.31294    0.37292    0.11401   1.00
C6       0.31824    0.57926    0.06896   1.00
C6       0.32899    0.42893    0.06875   1.00
C6       0.25072    0.60755    0.06807   1.00
C6       0.38097    0.39946    0.11106   1.00
H2       0.27696    0.64442    0.13549   1.00
H2       0.31757    0.35980    0.14269   1.00
H2       0.32525    0.62670    0.13402   1.00
H2       0.28183    0.37846    0.11072   1.00
H2       0.30746    0.65541    0.09551   1.00
H2       0.32108    0.35137    0.09203   1.00
H2       0.32664    0.60045    0.04671   1.00
H2       0.33768    0.40902    0.04545   1.00
H2       0.34415    0.57275    0.08622   1.00
H2       0.29800    0.43506    0.06502   1.00
H2       0.30906    0.55255    0.05427   1.00
H2       0.34507    0.45615    0.06506   1.00
H2       0.22659    0.61958    0.08505   1.00
H2       0.38821    0.38617    0.13910   1.00
H2       0.25979    0.62975    0.04708   1.00
H2       0.38835    0.37851    0.08822   1.00
H2       0.23970    0.58261    0.05162   1.00
H2       0.39963    0.42498    0.10717   1.00
C4       0.25230    0.75420    0.01975   1.00
C4       0.25166    0.75561    -0.02191   1.00
C3       0.28473    0.73920    0.04103   1.00
C3       0.28484    0.74599    -0.04504   1.00
C3       0.21950    0.76815    0.04146   1.00
C3       0.21675    0.76707    -0.04170   1.00
C2       0.25445    0.75310    0.10405   1.00
C2       0.24981    0.75659    -0.10622   1.00
C3       0.28592    0.73882    0.08189   1.00
C3       0.28397    0.74625    -0.08591   1.00
C3       0.22197    0.76745    0.08304   1.00
C3       0.21700    0.76675    -0.08336   1.00
H1       0.30854    0.72763    0.02763   1.00
H1       0.31102    0.73880    -0.03306   1.00
C5       0.18536    0.78207    0.02165   1.00
C5       0.18291    0.77865    -0.01998   1.00
H1       0.31022    0.72776    0.09549   1.00
H1       0.30884    0.73886    -0.10091   1.00
H1       0.19934    0.77736    0.09948   1.00
H1       0.19266    0.77446    -0.09848   1.00
C6       0.15262    0.80056    0.04485   1.00
C6       0.14498    0.78668    -0.04119   1.00
H2       0.16507    0.82019    0.06655   1.00
H2       0.14037    0.76411    -0.06310   1.00
H2       0.13556    0.82059    0.02714   1.00
H2       0.11986    0.78248    -0.02228   1.00
C6       0.12451    0.76993    0.06394   1.00
C6       0.14304    0.82859    -0.05942   1.00
H2       0.14165    0.74645    0.07708   1.00
H2       0.17071    0.83525    -0.07383   1.00
C6       0.09505    0.78504    0.09541   1.00
C6       0.10939    0.83715    -0.08911   1.00
H2       0.10790    0.75609    0.04051   1.00
H2       0.14080    0.84950    -0.03546   1.00
C6       0.11632    0.79954    0.13265   1.00
C6       0.11401    0.81294    -0.12708   1.00
C6       0.06896    0.81824    0.07926   1.00
C6       0.06875    0.82899    -0.07107   1.00
C6       0.06807    0.75072    0.10755   1.00
C6       0.11106    0.88097    -0.10054   1.00
H2       0.13549    0.77696    0.14442   1.00
H2       0.14269    0.81757    -0.14020   1.00
H2       0.13402    0.82525    0.12670   1.00
H2       0.11072    0.78183    -0.12154   1.00
H2       0.09551    0.80746    0.15541   1.00
H2       0.09203    0.82108    -0.14863   1.00
H2       0.04671    0.82664    0.10045   1.00
H2       0.04545    0.83768    -0.09098   1.00
H2       0.08622    0.84415    0.07275   1.00
H2       0.06502    0.79800    -0.06494   1.00
H2       0.05427    0.80906    0.05255   1.00
H2       0.06506    0.84507    -0.04385   1.00
H2       0.08505    0.72659    0.11958   1.00
H2       0.13910    0.88821    -0.11383   1.00
H2       0.04708    0.75979    0.12975   1.00
H2       0.08822    0.88835    -0.12149   1.00
H2       0.05162    0.73970    0.08261   1.00
H2       0.10717    0.89963    -0.07502   1.00
C4       0.75230    0.24580    0.48025   1.00
C4       0.75166    0.24439    0.52191   1.00
C3       0.78473    0.26080    0.45897   1.00
C3       0.78484    0.25401    0.54504   1.00
C3       0.71950    0.23185    0.45854   1.00
C3       0.71675    0.23293    0.54170   1.00
C2       0.75445    0.24690    0.39595   1.00
C2       0.74981    0.24341    0.60622   1.00
C3       0.78592    0.26118    0.41811   1.00
C3       0.78397    0.25375    0.58591   1.00
C3       0.72197    0.23255    0.41696   1.00
C3       0.71700    0.23325    0.58336   1.00
H1       0.80854    0.27237    0.47237   1.00
H1       0.81102    0.26120    0.53306   1.00
C5       0.68536    0.21793    0.47835   1.00
C5       0.68291    0.22135    0.51998   1.00
H1       0.81022    0.27224    0.40451   1.00
H1       0.80884    0.26114    0.60091   1.00
H1       0.69934    0.22264    0.40052   1.00
H1       0.69266    0.22554    0.59848   1.00
C6       0.65262    0.19944    0.45515   1.00
C6       0.64498    0.21332    0.54119   1.00
H2       0.66507    0.17981    0.43345   1.00
H2       0.64037    0.23589    0.56310   1.00
H2       0.63556    0.17941    0.47286   1.00
H2       0.61986    0.21752    0.52228   1.00
C6       0.62451    0.23007    0.43606   1.00
C6       0.64304    0.17141    0.55942   1.00
H2       0.64165    0.25355    0.42292   1.00
H2       0.67071    0.16475    0.57383   1.00
C6       0.59505    0.21496    0.40459   1.00
C6       0.60939    0.16285    0.58911   1.00
H2       0.60790    0.24391    0.45949   1.00
H2       0.64080    0.15050    0.53546   1.00
C6       0.61632    0.20046    0.36735   1.00
C6       0.61401    0.18706    0.62708   1.00
C6       0.56896    0.18176    0.42074   1.00
C6       0.56875    0.17101    0.57107   1.00
C6       0.56807    0.24928    0.39245   1.00
C6       0.61106    0.11903    0.60054   1.00
H2       0.63549    0.22304    0.35558   1.00
H2       0.64269    0.18243    0.64020   1.00
H2       0.63402    0.17475    0.37330   1.00
H2       0.61072    0.21817    0.62154   1.00
H2       0.59551    0.19254    0.34459   1.00
H2       0.59203    0.17892    0.64863   1.00
H2       0.54671    0.17336    0.39955   1.00
H2       0.54545    0.16232    0.59098   1.00
H2       0.58622    0.15585    0.42725   1.00
H2       0.56502    0.20200    0.56494   1.00
H2       0.55427    0.19094    0.44745   1.00
H2       0.56506    0.15493    0.54385   1.00
H2       0.58505    0.27341    0.38042   1.00
H2       0.63910    0.11179    0.61383   1.00
H2       0.54708    0.24021    0.37025   1.00
H2       0.58822    0.11165    0.62149   1.00
H2       0.55162    0.26030    0.41739   1.00
H2       0.60717    0.10037    0.57502   1.00
C4       0.74580    0.48025    0.25230   1.00
C4       0.74439    0.52191    0.25166   1.00
C3       0.76080    0.45897    0.28473   1.00
C3       0.75401    0.54504    0.28484   1.00
C3       0.73185    0.45854    0.21950   1.00
C3       0.73293    0.54170    0.21675   1.00
C2       0.74690    0.39595    0.25445   1.00
C2       0.74341    0.60622    0.24981   1.00
C3       0.76118    0.41811    0.28592   1.00
C3       0.75375    0.58591    0.28397   1.00
C3       0.73255    0.41696    0.22197   1.00
C3       0.73325    0.58336    0.21700   1.00
H1       0.77237    0.47237    0.30854   1.00
H1       0.76120    0.53306    0.31102   1.00
C5       0.71793    0.47835    0.18536   1.00
C5       0.72135    0.51998    0.18291   1.00
H1       0.77224    0.40451    0.31022   1.00
H1       0.76114    0.60091    0.30884   1.00
H1       0.72264    0.40052    0.19934   1.00
H1       0.72554    0.59848    0.19266   1.00
C6       0.69944    0.45515    0.15262   1.00
C6       0.71332    0.54119    0.14498   1.00
H2       0.67981    0.43345    0.16507   1.00
H2       0.73589    0.56310    0.14037   1.00
H2       0.67941    0.47286    0.13556   1.00
H2       0.71752    0.52228    0.11986   1.00
C6       0.73007    0.43606    0.12451   1.00
C6       0.67141    0.55942    0.14304   1.00
H2       0.75355    0.42292    0.14165   1.00
H2       0.66475    0.57383    0.17071   1.00
C6       0.71496    0.40459    0.09505   1.00
C6       0.66285    0.58911    0.10939   1.00
H2       0.74391    0.45949    0.10790   1.00
H2       0.65050    0.53546    0.14080   1.00
C6       0.70046    0.36735    0.11632   1.00
C6       0.68706    0.62708    0.11401   1.00
C6       0.68176    0.42074    0.06896   1.00
C6       0.67101    0.57107    0.06875   1.00
C6       0.74928    0.39245    0.06807   1.00
C6       0.61903    0.60054    0.11106   1.00
H2       0.72304    0.35558    0.13549   1.00
H2       0.68243    0.64020    0.14269   1.00
H2       0.67475    0.37330    0.13402   1.00
H2       0.71817    0.62154    0.11072   1.00
H2       0.69254    0.34459    0.09551   1.00
H2       0.67892    0.64863    0.09203   1.00
H2       0.67336    0.39955    0.04671   1.00
H2       0.66232    0.59098    0.04545   1.00
H2       0.65585    0.42725    0.08622   1.00
H2       0.70200    0.56494    0.06502   1.00
H2       0.69094    0.44745    0.05427   1.00
H2       0.65493    0.54385    0.06506   1.00
H2       0.77341    0.38042    0.08505   1.00
H2       0.61179    0.61383    0.13910   1.00
H2       0.74021    0.37025    0.04708   1.00
H2       0.61165    0.62149    0.08822   1.00
H2       0.76030    0.41739    0.05162   1.00
H2       0.60037    0.57502    0.10717   1.00
C4       0.51975    0.25230    0.25420   1.00
C4       0.47809    0.25166    0.25561   1.00
C3       0.54103    0.28473    0.23920   1.00
C3       0.45496    0.28484    0.24599   1.00
C3       0.54146    0.21950    0.26815   1.00
C3       0.45830    0.21675    0.26707   1.00
C2       0.60405    0.25445    0.25310   1.00
C2       0.39378    0.24981    0.25659   1.00
C3       0.58189    0.28592    0.23882   1.00
C3       0.41409    0.28397    0.24625   1.00
C3       0.58304    0.22197    0.26745   1.00
C3       0.41664    0.21700    0.26675   1.00
H1       0.52763    0.30854    0.22763   1.00
H1       0.46694    0.31102    0.23880   1.00
C5       0.52165    0.18536    0.28207   1.00
C5       0.48002    0.18291    0.27865   1.00
H1       0.59549    0.31022    0.22776   1.00
H1       0.39909    0.30884    0.23886   1.00
H1       0.59948    0.19934    0.27736   1.00
H1       0.40152    0.19266    0.27446   1.00
C6       0.54485    0.15262    0.30056   1.00
C6       0.45881    0.14498    0.28668   1.00
H2       0.56655    0.16507    0.32019   1.00
H2       0.43690    0.14037    0.26411   1.00
H2       0.52714    0.13556    0.32059   1.00
H2       0.47772    0.11986    0.28248   1.00
C6       0.56394    0.12451    0.26993   1.00
C6       0.44058    0.14304    0.32859   1.00
H2       0.57708    0.14165    0.24645   1.00
H2       0.42617    0.17071    0.33525   1.00
C6       0.59541    0.09505    0.28504   1.00
C6       0.41089    0.10939    0.33715   1.00
H2       0.54051    0.10790    0.25609   1.00
H2       0.46454    0.14080    0.34950   1.00
C6       0.63265    0.11632    0.29954   1.00
C6       0.37292    0.11401    0.31294   1.00
C6       0.57926    0.06896    0.31824   1.00
C6       0.42893    0.06875    0.32899   1.00
C6       0.60755    0.06807    0.25072   1.00
C6       0.39946    0.11106    0.38097   1.00
H2       0.64442    0.13549    0.27696   1.00
H2       0.35980    0.14269    0.31757   1.00
H2       0.62670    0.13402    0.32525   1.00
H2       0.37846    0.11072    0.28183   1.00
H2       0.65541    0.09551    0.30746   1.00
H2       0.35137    0.09203    0.32108   1.00
H2       0.60045    0.04671    0.32664   1.00
H2       0.40902    0.04545    0.33768   1.00
H2       0.57275    0.08622    0.34415   1.00
H2       0.43506    0.06502    0.29800   1.00
H2       0.55255    0.05427    0.30906   1.00
H2       0.45615    0.06506    0.34507   1.00
H2       0.61958    0.08505    0.22659   1.00
H2       0.38617    0.13910    0.38821   1.00
H2       0.62975    0.04708    0.25979   1.00
H2       0.37851    0.08822    0.38835   1.00
H2       0.58261    0.05162    0.23970   1.00
H2       0.42498    0.10717    0.39963   1.00
C4       0.98025    0.25230    0.24580   1.00
C4       1.02191    0.25166    0.24439   1.00
C3       0.95897    0.28473    0.26080   1.00
C3       1.04504    0.28484    0.25401   1.00
C3       0.95854    0.21950    0.23185   1.00
C3       1.04170    0.21675    0.23293   1.00
C2       0.89595    0.25445    0.24690   1.00
C2       1.10622    0.24981    0.24341   1.00
C3       0.91811    0.28592    0.26118   1.00
C3       1.08591    0.28397    0.25375   1.00
C3       0.91696    0.22197    0.23255   1.00
C3       1.08336    0.21700    0.23325   1.00
H1       0.97237    0.30854    0.27237   1.00
H1       1.03306    0.31102    0.26120   1.00
C5       0.97835    0.18536    0.21793   1.00
C5       1.01998    0.18291    0.22135   1.00
H1       0.90451    0.31022    0.27224   1.00
H1       1.10091    0.30884    0.26114   1.00
H1       0.90052    0.19934    0.22264   1.00
H1       1.09848    0.19266    0.22554   1.00
C6       0.95515    0.15262    0.19944   1.00
C6       1.04119    0.14498    0.21332   1.00
H2       0.93345    0.16507    0.17981   1.00
H2       1.06310    0.14037    0.23589   1.00
H2       0.97286    0.13556    0.17941   1.00
H2       1.02228    0.11986    0.21752   1.00
C6       0.93606    0.12451    0.23007   1.00
C6       1.05942    0.14304    0.17141   1.00
H2       0.92292    0.14165    0.25355   1.00
H2       1.07383    0.17071    0.16475   1.00
C6       0.90459    0.09505    0.21496   1.00
C6       1.08911    0.10939    0.16285   1.00
H2       0.95949    0.10790    0.24391   1.00
H2       1.03546    0.14080    0.15050   1.00
C6       0.86735    0.11632    0.20046   1.00
C6       1.12708    0.11401    0.18706   1.00
C6       0.92074    0.06896    0.18176   1.00
C6       1.07107    0.06875    0.17101   1.00
C6       0.89245    0.06807    0.24928   1.00
C6       1.10054    0.11106    0.11903   1.00
H2       0.85558    0.13549    0.22304   1.00
H2       1.14020    0.14269    0.18243   1.00
H2       0.87330    0.13402    0.17475   1.00
H2       1.12154    0.11072    0.21817   1.00
H2       0.84459    0.09551    0.19254   1.00
H2       1.14863    0.09203    0.17892   1.00
H2       0.89955    0.04671    0.17336   1.00
H2       1.09098    0.04545    0.16232   1.00
H2       0.92725    0.08622    0.15585   1.00
H2       1.06494    0.06502    0.20200   1.00
H2       0.94745    0.05427    0.19094   1.00
H2       1.04385    0.06506    0.15493   1.00
H2       0.88042    0.08505    0.27341   1.00
H2       1.11383    0.13910    0.11179   1.00
H2       0.87025    0.04708    0.24021   1.00
H2       1.12149    0.08822    0.11165   1.00
H2       0.91739    0.05162    0.26030   1.00
H2       1.07502    0.10717    0.10037   1.00
C4       0.75420    0.01975    0.25230   1.00
C4       0.75561    -0.02191   0.25166   1.00
C3       0.73920    0.04103    0.28473   1.00
C3       0.74599    -0.04504   0.28484   1.00
C3       0.76815    0.04146    0.21950   1.00
C3       0.76707    -0.04170   0.21675   1.00
C2       0.75310    0.10405    0.25445   1.00
C2       0.75659    -0.10622   0.24981   1.00
C3       0.73882    0.08189    0.28592   1.00
C3       0.74625    -0.08591   0.28397   1.00
C3       0.76745    0.08304    0.22197   1.00
C3       0.76675    -0.08336   0.21700   1.00
H1       0.72763    0.02763    0.30854   1.00
H1       0.73880    -0.03306   0.31102   1.00
C5       0.78207    0.02165    0.18536   1.00
C5       0.77865    -0.01998   0.18291   1.00
H1       0.72776    0.09549    0.31022   1.00
H1       0.73886    -0.10091   0.30884   1.00
H1       0.77736    0.09948    0.19934   1.00
H1       0.77446    -0.09848   0.19266   1.00
C6       0.80056    0.04485    0.15262   1.00
C6       0.78668    -0.04119   0.14498   1.00
H2       0.82019    0.06655    0.16507   1.00
H2       0.76411    -0.06310   0.14037   1.00
H2       0.82059    0.02714    0.13556   1.00
H2       0.78248    -0.02228   0.11986   1.00
C6       0.76993    0.06394    0.12451   1.00
C6       0.82859    -0.05942   0.14304   1.00
H2       0.74645    0.07708    0.14165   1.00
H2       0.83525    -0.07383   0.17071   1.00
C6       0.78504    0.09541    0.09505   1.00
C6       0.83715    -0.08911   0.10939   1.00
H2       0.75609    0.04051    0.10790   1.00
H2       0.84950    -0.03546   0.14080   1.00
C6       0.79954    0.13265    0.11632   1.00
C6       0.81294    -0.12708   0.11401   1.00
C6       0.81824    0.07926    0.06896   1.00
C6       0.82899    -0.07107   0.06875   1.00
C6       0.75072    0.10755    0.06807   1.00
C6       0.88097    -0.10054   0.11106   1.00
H2       0.77696    0.14442    0.13549   1.00
H2       0.81757    -0.14020   0.14269   1.00
H2       0.82525    0.12670    0.13402   1.00
H2       0.78183    -0.12154   0.11072   1.00
H2       0.80746    0.15541    0.09551   1.00
H2       0.82108    -0.14863   0.09203   1.00
H2       0.82664    0.10045    0.04671   1.00
H2       0.83768    -0.09098   0.04545   1.00
H2       0.84415    0.07275    0.08622   1.00
H2       0.79800    -0.06494   0.06502   1.00
H2       0.80906    0.05255    0.05427   1.00
H2       0.84507    -0.04385   0.06506   1.00
H2       0.72659    0.11958    0.08505   1.00
H2       0.88821    -0.11383   0.13910   1.00
H2       0.75979    0.12975    0.04708   1.00
H2       0.88835    -0.12149   0.08822   1.00
H2       0.73970    0.08261    0.05162   1.00
H2       0.89963    -0.07502   0.10717   1.00
C4       0.75230    0.25420    0.01975   1.00
C4       0.75166    0.25561    -0.02191   1.00
C3       0.78473    0.23920    0.04103   1.00
C3       0.78484    0.24599    -0.04504   1.00
C3       0.71950    0.26815    0.04146   1.00
C3       0.71675    0.26707    -0.04170   1.00
C2       0.75445    0.25310    0.10405   1.00
C2       0.74981    0.25659    -0.10622   1.00
C3       0.78592    0.23882    0.08189   1.00
C3       0.78397    0.24625    -0.08591   1.00
C3       0.72197    0.26745    0.08304   1.00
C3       0.71700    0.26675    -0.08336   1.00
H1       0.80854    0.22763    0.02763   1.00
H1       0.81102    0.23880    -0.03306   1.00
C5       0.68536    0.28207    0.02165   1.00
C5       0.68291    0.27865    -0.01998   1.00
H1       0.81022    0.22776    0.09549   1.00
H1       0.80884    0.23886    -0.10091   1.00
H1       0.69934    0.27736    0.09948   1.00
H1       0.69266    0.27446    -0.09848   1.00
C6       0.65262    0.30056    0.04485   1.00
C6       0.64498    0.28668    -0.04119   1.00
H2       0.66507    0.32019    0.06655   1.00
H2       0.64037    0.26411    -0.06310   1.00
H2       0.63556    0.32059    0.02714   1.00
H2       0.61986    0.28248    -0.02228   1.00
C6       0.62451    0.26993    0.06394   1.00
C6       0.64304    0.32859    -0.05942   1.00
H2       0.64165    0.24645    0.07708   1.00
H2       0.67071    0.33525    -0.07383   1.00
C6       0.59505    0.28504    0.09541   1.00
C6       0.60939    0.33715    -0.08911   1.00
H2       0.60790    0.25609    0.04051   1.00
H2       0.64080    0.34950    -0.03546   1.00
C6       0.61632    0.29954    0.13265   1.00
C6       0.61401    0.31294    -0.12708   1.00
C6       0.56896    0.31824    0.07926   1.00
C6       0.56875    0.32899    -0.07107   1.00
C6       0.56807    0.25072    0.10755   1.00
C6       0.61106    0.38097    -0.10054   1.00
H2       0.63549    0.27696    0.14442   1.00
H2       0.64269    0.31757    -0.14020   1.00
H2       0.63402    0.32525    0.12670   1.00
H2       0.61072    0.28183    -0.12154   1.00
H2       0.59551    0.30746    0.15541   1.00
H2       0.59203    0.32108    -0.14863   1.00
H2       0.54671    0.32664    0.10045   1.00
H2       0.54545    0.33768    -0.09098   1.00
H2       0.58622    0.34415    0.07275   1.00
H2       0.56502    0.29800    -0.06494   1.00
H2       0.55427    0.30906    0.05255   1.00
H2       0.56506    0.34507    -0.04385   1.00
H2       0.58505    0.22659    0.11958   1.00
H2       0.63910    0.38821    -0.11383   1.00
H2       0.54708    0.25979    0.12975   1.00
H2       0.58822    0.38835    -0.12149   1.00
H2       0.55162    0.23970    0.08261   1.00
H2       0.60717    0.39963    -0.07502   1.00
C4       1.00230    0.99580    1.23025   1.00
C4       1.00166    0.99439    1.27191   1.00
C3       1.03473    1.01080    1.20897   1.00
C3       1.03484    1.00401    1.29504   1.00
C3       0.96950    0.98185    1.20854   1.00
C3       0.96675    0.98293    1.29170   1.00
C2       1.00445    0.99690    1.14595   1.00
C2       0.99981    0.99341    1.35622   1.00
C3       1.03592    1.01118    1.16811   1.00
C3       1.03397    1.00375    1.33591   1.00
C3       0.97197    0.98255    1.16696   1.00
C3       0.96700    0.98325    1.33336   1.00
H1       1.05854    1.02237    1.22237   1.00
H1       1.06102    1.01120    1.28306   1.00
C5       0.93536    0.96793    1.22835   1.00
C5       0.93291    0.97135    1.26998   1.00
H1       1.06022    1.02224    1.15451   1.00
H1       1.05884    1.01114    1.35091   1.00
H1       0.94934    0.97264    1.15052   1.00
H1       0.94266    0.97554    1.34848   1.00
C6       0.90262    0.94944    1.20515   1.00
C6       0.89498    0.96332    1.29119   1.00
H2       0.91507    0.92981    1.18345   1.00
H2       0.89037    0.98589    1.31310   1.00
H2       0.88556    0.92941    1.22286   1.00
H2       0.86986    0.96752    1.27228   1.00
C6       0.87451    0.98007    1.18606   1.00
C6       0.89304    0.92141    1.30942   1.00
H2       0.89165    1.00355    1.17292   1.00
H2       0.92071    0.91475    1.32383   1.00
C6       0.84505    0.96496    1.15459   1.00
C6       0.85939    0.91285    1.33911   1.00
H2       0.85790    0.99391    1.20949   1.00
H2       0.89080    0.90050    1.28546   1.00
C6       0.86632    0.95046    1.11735   1.00
C6       0.86401    0.93706    1.37708   1.00
C6       0.81896    0.93176    1.17074   1.00
C6       0.81875    0.92101    1.32107   1.00
C6       0.81807    0.99928    1.14245   1.00
C6       0.86106    0.86903    1.35054   1.00
H2       0.88549    0.97304    1.10558   1.00
H2       0.89269    0.93243    1.39020   1.00
H2       0.88402    0.92475    1.12330   1.00
H2       0.86072    0.96817    1.37154   1.00
H2       0.84551    0.94254    1.09459   1.00
H2       0.84203    0.92892    1.39863   1.00
H2       0.79671    0.92336    1.14955   1.00
H2       0.79545    0.91232    1.34098   1.00
H2       0.83622    0.90585    1.17725   1.00
H2       0.81502    0.95200    1.31494   1.00
H2       0.80427    0.94094    1.19745   1.00
H2       0.81506    0.90493    1.29385   1.00
H2       0.83505    1.02341    1.13042   1.00
H2       0.88910    0.86179    1.36383   1.00
H2       0.79708    0.99021    1.12025   1.00
H2       0.83822    0.86165    1.37149   1.00
H2       0.80162    1.01030    1.16739   1.00
H2       0.85717    0.85037    1.32502   1.00
C4       0.99580    1.23025    1.00230   1.00
C4       0.99439    1.27191    1.00166   1.00
C3       1.01080    1.20897    1.03473   1.00
C3       1.00401    1.29504    1.03484   1.00
C3       0.98185    1.20854    0.96950   1.00
C3       0.98293    1.29170    0.96675   1.00
C2       0.99690    1.14595    1.00445   1.00
C2       0.99341    1.35622    0.99981   1.00
C3       1.01118    1.16811    1.03592   1.00
C3       1.00375    1.33591    1.03397   1.00
C3       0.98255    1.16696    0.97197   1.00
C3       0.98325    1.33336    0.96700   1.00
H1       1.02237    1.22237    1.05854   1.00
H1       1.01120    1.28306    1.06102   1.00
C5       0.96793    1.22835    0.93536   1.00
C5       0.97135    1.26998    0.93291   1.00
H1       1.02224    1.15451    1.06022   1.00
H1       1.01114    1.35091    1.05884   1.00
H1       0.97264    1.15052    0.94934   1.00
H1       0.97554    1.34848    0.94266   1.00
C6       0.94944    1.20515    0.90262   1.00
C6       0.96332    1.29119    0.89498   1.00
H2       0.92981    1.18345    0.91507   1.00
H2       0.98589    1.31310    0.89037   1.00
H2       0.92941    1.22286    0.88556   1.00
H2       0.96752    1.27228    0.86986   1.00
C6       0.98007    1.18606    0.87451   1.00
C6       0.92141    1.30942    0.89304   1.00
H2       1.00355    1.17292    0.89165   1.00
H2       0.91475    1.32383    0.92071   1.00
C6       0.96496    1.15459    0.84505   1.00
C6       0.91285    1.33911    0.85939   1.00
H2       0.99391    1.20949    0.85790   1.00
H2       0.90050    1.28546    0.89080   1.00
C6       0.95046    1.11735    0.86632   1.00
C6       0.93706    1.37708    0.86401   1.00
C6       0.93176    1.17074    0.81896   1.00
C6       0.92101    1.32107    0.81875   1.00
C6       0.99928    1.14245    0.81807   1.00
C6       0.86903    1.35054    0.86106   1.00
H2       0.97304    1.10558    0.88549   1.00
H2       0.93243    1.39020    0.89269   1.00
H2       0.92475    1.12330    0.88402   1.00
H2       0.96817    1.37154    0.86072   1.00
H2       0.94254    1.09459    0.84551   1.00
H2       0.92892    1.39863    0.84203   1.00
H2       0.92336    1.14955    0.79671   1.00
H2       0.91232    1.34098    0.79545   1.00
H2       0.90585    1.17725    0.83622   1.00
H2       0.95200    1.31494    0.81502   1.00
H2       0.94094    1.19745    0.80427   1.00
H2       0.90493    1.29385    0.81506   1.00
H2       1.02341    1.13042    0.83505   1.00
H2       0.86179    1.36383    0.88910   1.00
H2       0.99021    1.12025    0.79708   1.00
H2       0.86165    1.37149    0.83822   1.00
H2       1.01030    1.16739    0.80162   1.00
H2       0.85037    1.32502    0.85717   1.00
C4       0.76975    1.00230    1.00420   1.00
C4       0.72809    1.00166    1.00561   1.00
C3       0.79103    1.03473    0.98920   1.00
C3       0.70496    1.03484    0.99599   1.00
C3       0.79146    0.96950    1.01815   1.00
C3       0.70830    0.96675    1.01707   1.00
C2       0.85405    1.00445    1.00310   1.00
C2       0.64378    0.99981    1.00659   1.00
C3       0.83189    1.03592    0.98882   1.00
C3       0.66409    1.03397    0.99625   1.00
C3       0.83304    0.97197    1.01745   1.00
C3       0.66664    0.96700    1.01675   1.00
H1       0.77763    1.05854    0.97763   1.00
H1       0.71694    1.06102    0.98880   1.00
C5       0.77165    0.93536    1.03207   1.00
C5       0.73002    0.93291    1.02865   1.00
H1       0.84549    1.06022    0.97776   1.00
H1       0.64909    1.05884    0.98886   1.00
H1       0.84948    0.94934    1.02736   1.00
H1       0.65152    0.94266    1.02446   1.00
C6       0.79485    0.90262    1.05056   1.00
C6       0.70881    0.89498    1.03668   1.00
H2       0.81655    0.91507    1.07019   1.00
H2       0.68690    0.89037    1.01411   1.00
H2       0.77714    0.88556    1.07059   1.00
H2       0.72772    0.86986    1.03248   1.00
C6       0.81394    0.87451    1.01993   1.00
C6       0.69058    0.89304    1.07859   1.00
H2       0.82708    0.89165    0.99645   1.00
H2       0.67617    0.92071    1.08525   1.00
C6       0.84541    0.84505    1.03504   1.00
C6       0.66089    0.85939    1.08715   1.00
H2       0.79051    0.85790    1.00609   1.00
H2       0.71454    0.89080    1.09950   1.00
C6       0.88265    0.86632    1.04954   1.00
C6       0.62292    0.86401    1.06294   1.00
C6       0.82926    0.81896    1.06824   1.00
C6       0.67893    0.81875    1.07899   1.00
C6       0.85755    0.81807    1.00072   1.00
C6       0.64946    0.86106    1.13097   1.00
H2       0.89442    0.88549    1.02696   1.00
H2       0.60980    0.89269    1.06757   1.00
H2       0.87670    0.88402    1.07525   1.00
H2       0.62846    0.86072    1.03183   1.00
H2       0.90541    0.84551    1.05746   1.00
H2       0.60137    0.84203    1.07108   1.00
H2       0.85045    0.79671    1.07664   1.00
H2       0.65902    0.79545    1.08768   1.00
H2       0.82275    0.83622    1.09415   1.00
H2       0.68506    0.81502    1.04800   1.00
H2       0.80255    0.80427    1.05906   1.00
H2       0.70615    0.81506    1.09507   1.00
H2       0.86958    0.83505    0.97659   1.00
H2       0.63617    0.88910    1.13821   1.00
H2       0.87975    0.79708    1.00979   1.00
H2       0.62851    0.83822    1.13835   1.00
H2       0.83261    0.80162    0.98970   1.00
H2       0.67498    0.85717    1.14963   1.00
C4       1.23025    1.00230    0.99580   1.00
C4       1.27191    1.00166    0.99439   1.00
C3       1.20897    1.03473    1.01080   1.00
C3       1.29504    1.03484    1.00401   1.00
C3       1.20854    0.96950    0.98185   1.00
C3       1.29170    0.96675    0.98293   1.00
C2       1.14595    1.00445    0.99690   1.00
C2       1.35622    0.99981    0.99341   1.00
C3       1.16811    1.03592    1.01118   1.00
C3       1.33591    1.03397    1.00375   1.00
C3       1.16696    0.97197    0.98255   1.00
C3       1.33336    0.96700    0.98325   1.00
H1       1.22237    1.05854    1.02237   1.00
H1       1.28306    1.06102    1.01120   1.00
C5       1.22835    0.93536    0.96793   1.00
C5       1.26998    0.93291    0.97135   1.00
H1       1.15451    1.06022    1.02224   1.00
H1       1.35091    1.05884    1.01114   1.00
H1       1.15052    0.94934    0.97264   1.00
H1       1.34848    0.94266    0.97554   1.00
C6       1.20515    0.90262    0.94944   1.00
C6       1.29119    0.89498    0.96332   1.00
H2       1.18345    0.91507    0.92981   1.00
H2       1.31310    0.89037    0.98589   1.00
H2       1.22286    0.88556    0.92941   1.00
H2       1.27228    0.86986    0.96752   1.00
C6       1.18606    0.87451    0.98007   1.00
C6       1.30942    0.89304    0.92141   1.00
H2       1.17292    0.89165    1.00355   1.00
H2       1.32383    0.92071    0.91475   1.00
C6       1.15459    0.84505    0.96496   1.00
C6       1.33911    0.85939    0.91285   1.00
H2       1.20949    0.85790    0.99391   1.00
H2       1.28546    0.89080    0.90050   1.00
C6       1.11735    0.86632    0.95046   1.00
C6       1.37708    0.86401    0.93706   1.00
C6       1.17074    0.81896    0.93176   1.00
C6       1.32107    0.81875    0.92101   1.00
C6       1.14245    0.81807    0.99928   1.00
C6       1.35054    0.86106    0.86903   1.00
H2       1.10558    0.88549    0.97304   1.00
H2       1.39020    0.89269    0.93243   1.00
H2       1.12330    0.88402    0.92475   1.00
H2       1.37154    0.86072    0.96817   1.00
H2       1.09459    0.84551    0.94254   1.00
H2       1.39863    0.84203    0.92892   1.00
H2       1.14955    0.79671    0.92336   1.00
H2       1.34098    0.79545    0.91232   1.00
H2       1.17725    0.83622    0.90585   1.00
H2       1.31494    0.81502    0.95200   1.00
H2       1.19745    0.80427    0.94094   1.00
H2       1.29385    0.81506    0.90493   1.00
H2       1.13042    0.83505    1.02341   1.00
H2       1.36383    0.88910    0.86179   1.00
H2       1.12025    0.79708    0.99021   1.00
H2       1.37149    0.83822    0.86165   1.00
H2       1.16739    0.80162    1.01030   1.00
H2       1.32502    0.85717    0.85037   1.00
C4       1.00420    0.76975    1.00230   1.00
C4       1.00561    0.72809    1.00166   1.00
C3       0.98920    0.79103    1.03473   1.00
C3       0.99599    0.70496    1.03484   1.00
C3       1.01815    0.79146    0.96950   1.00
C3       1.01707    0.70830    0.96675   1.00
C2       1.00310    0.85405    1.00445   1.00
C2       1.00659    0.64378    0.99981   1.00
C3       0.98882    0.83189    1.03592   1.00
C3       0.99625    0.66409    1.03397   1.00
C3       1.01745    0.83304    0.97197   1.00
C3       1.01675    0.66664    0.96700   1.00
H1       0.97763    0.77763    1.05854   1.00
H1       0.98880    0.71694    1.06102   1.00
C5       1.03207    0.77165    0.93536   1.00
C5       1.02865    0.73002    0.93291   1.00
H1       0.97776    0.84549    1.06022   1.00
H1       0.98886    0.64909    1.05884   1.00
H1       1.02736    0.84948    0.94934   1.00
H1       1.02446    0.65152    0.94266   1.00
C6       1.05056    0.79485    0.90262   1.00
C6       1.03668    0.70881    0.89498   1.00
H2       1.07019    0.81655    0.91507   1.00
H2       1.01411    0.68690    0.89037   1.00
H2       1.07059    0.77714    0.88556   1.00
H2       1.03248    0.72772    0.86986   1.00
C6       1.01993    0.81394    0.87451   1.00
C6       1.07859    0.69058    0.89304   1.00
H2       0.99645    0.82708    0.89165   1.00
H2       1.08525    0.67617    0.92071   1.00
C6       1.03504    0.84541    0.84505   1.00
C6       1.08715    0.66089    0.85939   1.00
H2       1.00609    0.79051    0.85790   1.00
H2       1.09950    0.71454    0.89080   1.00
C6       1.04954    0.88265    0.86632   1.00
C6       1.06294    0.62292    0.86401   1.00
C6       1.06824    0.82926    0.81896   1.00
C6       1.07899    0.67893    0.81875   1.00
C6       1.00072    0.85755    0.81807   1.00
C6       1.13097    0.64946    0.86106   1.00
H2       1.02696    0.89442    0.88549   1.00
H2       1.06757    0.60980    0.89269   1.00
H2       1.07525    0.87670    0.88402   1.00
H2       1.03183    0.62846    0.86072   1.00
H2       1.05746    0.90541    0.84551   1.00
H2       1.07108    0.60137    0.84203   1.00
H2       1.07664    0.85045    0.79671   1.00
H2       1.08768    0.65902    0.79545   1.00
H2       1.09415    0.82275    0.83622   1.00
H2       1.04800    0.68506    0.81502   1.00
H2       1.05906    0.80255    0.80427   1.00
H2       1.09507    0.70615    0.81506   1.00
H2       0.97659    0.86958    0.83505   1.00
H2       1.13821    0.63617    0.88910   1.00
H2       1.00979    0.87975    0.79708   1.00
H2       1.13835    0.62851    0.83822   1.00
H2       0.98970    0.83261    0.80162   1.00
H2       1.14963    0.67498    0.85717   1.00
C4       1.00230    1.00420    0.76975   1.00
C4       1.00166    1.00561    0.72809   1.00
C3       1.03473    0.98920    0.79103   1.00
C3       1.03484    0.99599    0.70496   1.00
C3       0.96950    1.01815    0.79146   1.00
C3       0.96675    1.01707    0.70830   1.00
C2       1.00445    1.00310    0.85405   1.00
C2       0.99981    1.00659    0.64378   1.00
C3       1.03592    0.98882    0.83189   1.00
C3       1.03397    0.99625    0.66409   1.00
C3       0.97197    1.01745    0.83304   1.00
C3       0.96700    1.01675    0.66664   1.00
H1       1.05854    0.97763    0.77763   1.00
H1       1.06102    0.98880    0.71694   1.00
C5       0.93536    1.03207    0.77165   1.00
C5       0.93291    1.02865    0.73002   1.00
H1       1.06022    0.97776    0.84549   1.00
H1       1.05884    0.98886    0.64909   1.00
H1       0.94934    1.02736    0.84948   1.00
H1       0.94266    1.02446    0.65152   1.00
C6       0.90262    1.05056    0.79485   1.00
C6       0.89498    1.03668    0.70881   1.00
H2       0.91507    1.07019    0.81655   1.00
H2       0.89037    1.01411    0.68690   1.00
H2       0.88556    1.07059    0.77714   1.00
H2       0.86986    1.03248    0.72772   1.00
C6       0.87451    1.01993    0.81394   1.00
C6       0.89304    1.07859    0.69058   1.00
H2       0.89165    0.99645    0.82708   1.00
H2       0.92071    1.08525    0.67617   1.00
C6       0.84505    1.03504    0.84541   1.00
C6       0.85939    1.08715    0.66089   1.00
H2       0.85790    1.00609    0.79051   1.00
H2       0.89080    1.09950    0.71454   1.00
C6       0.86632    1.04954    0.88265   1.00
C6       0.86401    1.06294    0.62292   1.00
C6       0.81896    1.06824    0.82926   1.00
C6       0.81875    1.07899    0.67893   1.00
C6       0.81807    1.00072    0.85755   1.00
C6       0.86106    1.13097    0.64946   1.00
H2       0.88549    1.02696    0.89442   1.00
H2       0.89269    1.06757    0.60980   1.00
H2       0.88402    1.07525    0.87670   1.00
H2       0.86072    1.03183    0.62846   1.00
H2       0.84551    1.05746    0.90541   1.00
H2       0.84203    1.07108    0.60137   1.00
H2       0.79671    1.07664    0.85045   1.00
H2       0.79545    1.08768    0.65902   1.00
H2       0.83622    1.09415    0.82275   1.00
H2       0.81502    1.04800    0.68506   1.00
H2       0.80427    1.05906    0.80255   1.00
H2       0.81506    1.09507    0.70615   1.00
H2       0.83505    0.97659    0.86958   1.00
H2       0.88910    1.13821    0.63617   1.00
H2       0.79708    1.00979    0.87975   1.00
H2       0.83822    1.13835    0.62851   1.00
H2       0.80162    0.98970    0.83261   1.00
H2       0.85717    1.14963    0.67498   1.00
C4       0.50230    0.49580    1.23025   1.00
C4       0.50166    0.49439    1.27191   1.00
C3       0.53473    0.51080    1.20897   1.00
C3       0.53484    0.50401    1.29504   1.00
C3       0.46950    0.48185    1.20854   1.00
C3       0.46675    0.48293    1.29170   1.00
C2       0.50445    0.49690    1.14595   1.00
C2       0.49981    0.49341    1.35622   1.00
C3       0.53592    0.51118    1.16811   1.00
C3       0.53397    0.50375    1.33591   1.00
C3       0.47197    0.48255    1.16696   1.00
C3       0.46700    0.48325    1.33336   1.00
H1       0.55854    0.52237    1.22237   1.00
H1       0.56102    0.51120    1.28306   1.00
C5       0.43536    0.46793    1.22835   1.00
C5       0.43291    0.47135    1.26998   1.00
H1       0.56022    0.52224    1.15451   1.00
H1       0.55884    0.51114    1.35091   1.00
H1       0.44934    0.47264    1.15052   1.00
H1       0.44266    0.47554    1.34848   1.00
C6       0.40262    0.44944    1.20515   1.00
C6       0.39498    0.46332    1.29119   1.00
H2       0.41507    0.42981    1.18345   1.00
H2       0.39037    0.48589    1.31310   1.00
H2       0.38556    0.42941    1.22286   1.00
H2       0.36986    0.46752    1.27228   1.00
C6       0.37451    0.48007    1.18606   1.00
C6       0.39304    0.42141    1.30942   1.00
H2       0.39165    0.50355    1.17292   1.00
H2       0.42071    0.41475    1.32383   1.00
C6       0.34505    0.46496    1.15459   1.00
C6       0.35939    0.41285    1.33911   1.00
H2       0.35790    0.49391    1.20949   1.00
H2       0.39080    0.40050    1.28546   1.00
C6       0.36632    0.45046    1.11735   1.00
C6       0.36401    0.43706    1.37708   1.00
C6       0.31896    0.43176    1.17074   1.00
C6       0.31875    0.42101    1.32107   1.00
C6       0.31807    0.49928    1.14245   1.00
C6       0.36106    0.36903    1.35054   1.00
H2       0.38549    0.47304    1.10558   1.00
H2       0.39269    0.43243    1.39020   1.00
H2       0.38402    0.42475    1.12330   1.00
H2       0.36072    0.46817    1.37154   1.00
H2       0.34551    0.44254    1.09459   1.00
H2       0.34203    0.42892    1.39863   1.00
H2       0.29671    0.42336    1.14955   1.00
H2       0.29545    0.41232    1.34098   1.00
H2       0.33622    0.40585    1.17725   1.00
H2       0.31502    0.45200    1.31494   1.00
H2       0.30427    0.44094    1.19745   1.00
H2       0.31506    0.40493    1.29385   1.00
H2       0.33505    0.52341    1.13042   1.00
H2       0.38910    0.36179    1.36383   1.00
H2       0.29708    0.49021    1.12025   1.00
H2       0.33822    0.36165    1.37149   1.00
H2       0.30162    0.51030    1.16739   1.00
H2       0.35717    0.35037    1.32502   1.00
C4       0.49580    0.73025    1.00230   1.00
C4       0.49439    0.77191    1.00166   1.00
C3       0.51080    0.70897    1.03473   1.00
C3       0.50401    0.79504    1.03484   1.00
C3       0.48185    0.70854    0.96950   1.00
C3       0.48293    0.79170    0.96675   1.00
C2       0.49690    0.64595    1.00445   1.00
C2       0.49341    0.85622    0.99981   1.00
C3       0.51118    0.66811    1.03592   1.00
C3       0.50375    0.83591    1.03397   1.00
C3       0.48255    0.66696    0.97197   1.00
C3       0.48325    0.83336    0.96700   1.00
H1       0.52237    0.72237    1.05854   1.00
H1       0.51120    0.78306    1.06102   1.00
C5       0.46793    0.72835    0.93536   1.00
C5       0.47135    0.76998    0.93291   1.00
H1       0.52224    0.65451    1.06022   1.00
H1       0.51114    0.85091    1.05884   1.00
H1       0.47264    0.65052    0.94934   1.00
H1       0.47554    0.84848    0.94266   1.00
C6       0.44944    0.70515    0.90262   1.00
C6       0.46332    0.79119    0.89498   1.00
H2       0.42981    0.68345    0.91507   1.00
H2       0.48589    0.81310    0.89037   1.00
H2       0.42941    0.72286    0.88556   1.00
H2       0.46752    0.77228    0.86986   1.00
C6       0.48007    0.68606    0.87451   1.00
C6       0.42141    0.80942    0.89304   1.00
H2       0.50355    0.67292    0.89165   1.00
H2       0.41475    0.82383    0.92071   1.00
C6       0.46496    0.65459    0.84505   1.00
C6       0.41285    0.83911    0.85939   1.00
H2       0.49391    0.70949    0.85790   1.00
H2       0.40050    0.78546    0.89080   1.00
C6       0.45046    0.61735    0.86632   1.00
C6       0.43706    0.87708    0.86401   1.00
C6       0.43176    0.67074    0.81896   1.00
C6       0.42101    0.82107    0.81875   1.00
C6       0.49928    0.64245    0.81807   1.00
C6       0.36903    0.85054    0.86106   1.00
H2       0.47304    0.60558    0.88549   1.00
H2       0.43243    0.89020    0.89269   1.00
H2       0.42475    0.62330    0.88402   1.00
H2       0.46817    0.87154    0.86072   1.00
H2       0.44254    0.59459    0.84551   1.00
H2       0.42892    0.89863    0.84203   1.00
H2       0.42336    0.64955    0.79671   1.00
H2       0.41232    0.84098    0.79545   1.00
H2       0.40585    0.67725    0.83622   1.00
H2       0.45200    0.81494    0.81502   1.00
H2       0.44094    0.69745    0.80427   1.00
H2       0.40493    0.79385    0.81506   1.00
H2       0.52341    0.63042    0.83505   1.00
H2       0.36179    0.86383    0.88910   1.00
H2       0.49021    0.62025    0.79708   1.00
H2       0.36165    0.87149    0.83822   1.00
H2       0.51030    0.66739    0.80162   1.00
H2       0.35037    0.82502    0.85717   1.00
C4       0.26975    0.50230    1.00420   1.00
C4       0.22809    0.50166    1.00561   1.00
C3       0.29103    0.53473    0.98920   1.00
C3       0.20496    0.53484    0.99599   1.00
C3       0.29146    0.46950    1.01815   1.00
C3       0.20830    0.46675    1.01707   1.00
C2       0.35405    0.50445    1.00310   1.00
C2       0.14378    0.49981    1.00659   1.00
C3       0.33189    0.53592    0.98882   1.00
C3       0.16409    0.53397    0.99625   1.00
C3       0.33304    0.47197    1.01745   1.00
C3       0.16664    0.46700    1.01675   1.00
H1       0.27763    0.55854    0.97763   1.00
H1       0.21694    0.56102    0.98880   1.00
C5       0.27165    0.43536    1.03207   1.00
C5       0.23002    0.43291    1.02865   1.00
H1       0.34549    0.56022    0.97776   1.00
H1       0.14909    0.55884    0.98886   1.00
H1       0.34948    0.44934    1.02736   1.00
H1       0.15152    0.44266    1.02446   1.00
C6       0.29485    0.40262    1.05056   1.00
C6       0.20881    0.39498    1.03668   1.00
H2       0.31655    0.41507    1.07019   1.00
H2       0.18690    0.39037    1.01411   1.00
H2       0.27714    0.38556    1.07059   1.00
H2       0.22772    0.36986    1.03248   1.00
C6       0.31394    0.37451    1.01993   1.00
C6       0.19058    0.39304    1.07859   1.00
H2       0.32708    0.39165    0.99645   1.00
H2       0.17617    0.42071    1.08525   1.00
C6       0.34541    0.34505    1.03504   1.00
C6       0.16089    0.35939    1.08715   1.00
H2       0.29051    0.35790    1.00609   1.00
H2       0.21454    0.39080    1.09950   1.00
C6       0.38265    0.36632    1.04954   1.00
C6       0.12292    0.36401    1.06294   1.00
C6       0.32926    0.31896    1.06824   1.00
C6       0.17893    0.31875    1.07899   1.00
C6       0.35755    0.31807    1.00072   1.00
C6       0.14946    0.36106    1.13097   1.00
H2       0.39442    0.38549    1.02696   1.00
H2       0.10980    0.39269    1.06757   1.00
H2       0.37670    0.38402    1.07525   1.00
H2       0.12846    0.36072    1.03183   1.00
H2       0.40541    0.34551    1.05746   1.00
H2       0.10137    0.34203    1.07108   1.00
H2       0.35045    0.29671    1.07664   1.00
H2       0.15902    0.29545    1.08768   1.00
H2       0.32275    0.33622    1.09415   1.00
H2       0.18506    0.31502    1.04800   1.00
H2       0.30255    0.30427    1.05906   1.00
H2       0.20615    0.31506    1.09507   1.00
H2       0.36958    0.33505    0.97659   1.00
H2       0.13617    0.38910    1.13821   1.00
H2       0.37975    0.29708    1.00979   1.00
H2       0.12851    0.33822    1.13835   1.00
H2       0.33261    0.30162    0.98970   1.00
H2       0.17498    0.35717    1.14963   1.00
C4       0.73025    0.50230    0.99580   1.00
C4       0.77191    0.50166    0.99439   1.00
C3       0.70897    0.53473    1.01080   1.00
C3       0.79504    0.53484    1.00401   1.00
C3       0.70854    0.46950    0.98185   1.00
C3       0.79170    0.46675    0.98293   1.00
C2       0.64595    0.50445    0.99690   1.00
C2       0.85622    0.49981    0.99341   1.00
C3       0.66811    0.53592    1.01118   1.00
C3       0.83591    0.53397    1.00375   1.00
C3       0.66696    0.47197    0.98255   1.00
C3       0.83336    0.46700    0.98325   1.00
H1       0.72237    0.55854    1.02237   1.00
H1       0.78306    0.56102    1.01120   1.00
C5       0.72835    0.43536    0.96793   1.00
C5       0.76998    0.43291    0.97135   1.00
H1       0.65451    0.56022    1.02224   1.00
H1       0.85091    0.55884    1.01114   1.00
H1       0.65052    0.44934    0.97264   1.00
H1       0.84848    0.44266    0.97554   1.00
C6       0.70515    0.40262    0.94944   1.00
C6       0.79119    0.39498    0.96332   1.00
H2       0.68345    0.41507    0.92981   1.00
H2       0.81310    0.39037    0.98589   1.00
H2       0.72286    0.38556    0.92941   1.00
H2       0.77228    0.36986    0.96752   1.00
C6       0.68606    0.37451    0.98007   1.00
C6       0.80942    0.39304    0.92141   1.00
H2       0.67292    0.39165    1.00355   1.00
H2       0.82383    0.42071    0.91475   1.00
C6       0.65459    0.34505    0.96496   1.00
C6       0.83911    0.35939    0.91285   1.00
H2       0.70949    0.35790    0.99391   1.00
H2       0.78546    0.39080    0.90050   1.00
C6       0.61735    0.36632    0.95046   1.00
C6       0.87708    0.36401    0.93706   1.00
C6       0.67074    0.31896    0.93176   1.00
C6       0.82107    0.31875    0.92101   1.00
C6       0.64245    0.31807    0.99928   1.00
C6       0.85054    0.36106    0.86903   1.00
H2       0.60558    0.38549    0.97304   1.00
H2       0.89020    0.39269    0.93243   1.00
H2       0.62330    0.38402    0.92475   1.00
H2       0.87154    0.36072    0.96817   1.00
H2       0.59459    0.34551    0.94254   1.00
H2       0.89863    0.34203    0.92892   1.00
H2       0.64955    0.29671    0.92336   1.00
H2       0.84098    0.29545    0.91232   1.00
H2       0.67725    0.33622    0.90585   1.00
H2       0.81494    0.31502    0.95200   1.00
H2       0.69745    0.30427    0.94094   1.00
H2       0.79385    0.31506    0.90493   1.00
H2       0.63042    0.33505    1.02341   1.00
H2       0.86383    0.38910    0.86179   1.00
H2       0.62025    0.29708    0.99021   1.00
H2       0.87149    0.33822    0.86165   1.00
H2       0.66739    0.30162    1.01030   1.00
H2       0.82502    0.35717    0.85037   1.00
C4       0.50420    0.26975    1.00230   1.00
C4       0.50561    0.22809    1.00166   1.00
C3       0.48920    0.29103    1.03473   1.00
C3       0.49599    0.20496    1.03484   1.00
C3       0.51815    0.29146    0.96950   1.00
C3       0.51707    0.20830    0.96675   1.00
C2       0.50310    0.35405    1.00445   1.00
C2       0.50659    0.14378    0.99981   1.00
C3       0.48882    0.33189    1.03592   1.00
C3       0.49625    0.16409    1.03397   1.00
C3       0.51745    0.33304    0.97197   1.00
C3       0.51675    0.16664    0.96700   1.00
H1       0.47763    0.27763    1.05854   1.00
H1       0.48880    0.21694    1.06102   1.00
C5       0.53207    0.27165    0.93536   1.00
C5       0.52865    0.23002    0.93291   1.00
H1       0.47776    0.34549    1.06022   1.00
H1       0.48886    0.14909    1.05884   1.00
H1       0.52736    0.34948    0.94934   1.00
H1       0.52446    0.15152    0.94266   1.00
C6       0.55056    0.29485    0.90262   1.00
C6       0.53668    0.20881    0.89498   1.00
H2       0.57019    0.31655    0.91507   1.00
H2       0.51411    0.18690    0.89037   1.00
H2       0.57059    0.27714    0.88556   1.00
H2       0.53248    0.22772    0.86986   1.00
C6       0.51993    0.31394    0.87451   1.00
C6       0.57859    0.19058    0.89304   1.00
H2       0.49645    0.32708    0.89165   1.00
H2       0.58525    0.17617    0.92071   1.00
C6       0.53504    0.34541    0.84505   1.00
C6       0.58715    0.16089    0.85939   1.00
H2       0.50609    0.29051    0.85790   1.00
H2       0.59950    0.21454    0.89080   1.00
C6       0.54954    0.38265    0.86632   1.00
C6       0.56294    0.12292    0.86401   1.00
C6       0.56824    0.32926    0.81896   1.00
C6       0.57899    0.17893    0.81875   1.00
C6       0.50072    0.35755    0.81807   1.00
C6       0.63097    0.14946    0.86106   1.00
H2       0.52696    0.39442    0.88549   1.00
H2       0.56757    0.10980    0.89269   1.00
H2       0.57525    0.37670    0.88402   1.00
H2       0.53183    0.12846    0.86072   1.00
H2       0.55746    0.40541    0.84551   1.00
H2       0.57108    0.10137    0.84203   1.00
H2       0.57664    0.35045    0.79671   1.00
H2       0.58768    0.15902    0.79545   1.00
H2       0.59415    0.32275    0.83622   1.00
H2       0.54800    0.18506    0.81502   1.00
H2       0.55906    0.30255    0.80427   1.00
H2       0.59507    0.20615    0.81506   1.00
H2       0.47659    0.36958    0.83505   1.00
H2       0.63821    0.13617    0.88910   1.00
H2       0.50979    0.37975    0.79708   1.00
H2       0.63835    0.12851    0.83822   1.00
H2       0.48970    0.33261    0.80162   1.00
H2       0.64963    0.17498    0.85717   1.00
C4       0.50230    0.50420    0.76975   1.00
C4       0.50166    0.50561    0.72809   1.00
C3       0.53473    0.48920    0.79103   1.00
C3       0.53484    0.49599    0.70496   1.00
C3       0.46950    0.51815    0.79146   1.00
C3       0.46675    0.51707    0.70830   1.00
C2       0.50445    0.50310    0.85405   1.00
C2       0.49981    0.50659    0.64378   1.00
C3       0.53592    0.48882    0.83189   1.00
C3       0.53397    0.49625    0.66409   1.00
C3       0.47197    0.51745    0.83304   1.00
C3       0.46700    0.51675    0.66664   1.00
H1       0.55854    0.47763    0.77763   1.00
H1       0.56102    0.48880    0.71694   1.00
C5       0.43536    0.53207    0.77165   1.00
C5       0.43291    0.52865    0.73002   1.00
H1       0.56022    0.47776    0.84549   1.00
H1       0.55884    0.48886    0.64909   1.00
H1       0.44934    0.52736    0.84948   1.00
H1       0.44266    0.52446    0.65152   1.00
C6       0.40262    0.55056    0.79485   1.00
C6       0.39498    0.53668    0.70881   1.00
H2       0.41507    0.57019    0.81655   1.00
H2       0.39037    0.51411    0.68690   1.00
H2       0.38556    0.57059    0.77714   1.00
H2       0.36986    0.53248    0.72772   1.00
C6       0.37451    0.51993    0.81394   1.00
C6       0.39304    0.57859    0.69058   1.00
H2       0.39165    0.49645    0.82708   1.00
H2       0.42071    0.58525    0.67617   1.00
C6       0.34505    0.53504    0.84541   1.00
C6       0.35939    0.58715    0.66089   1.00
H2       0.35790    0.50609    0.79051   1.00
H2       0.39080    0.59950    0.71454   1.00
C6       0.36632    0.54954    0.88265   1.00
C6       0.36401    0.56294    0.62292   1.00
C6       0.31896    0.56824    0.82926   1.00
C6       0.31875    0.57899    0.67893   1.00
C6       0.31807    0.50072    0.85755   1.00
C6       0.36106    0.63097    0.64946   1.00
H2       0.38549    0.52696    0.89442   1.00
H2       0.39269    0.56757    0.60980   1.00
H2       0.38402    0.57525    0.87670   1.00
H2       0.36072    0.53183    0.62846   1.00
H2       0.34551    0.55746    0.90541   1.00
H2       0.34203    0.57108    0.60137   1.00
H2       0.29671    0.57664    0.85045   1.00
H2       0.29545    0.58768    0.65902   1.00
H2       0.33622    0.59415    0.82275   1.00
H2       0.31502    0.54800    0.68506   1.00
H2       0.30427    0.55906    0.80255   1.00
H2       0.31506    0.59507    0.70615   1.00
H2       0.33505    0.47659    0.86958   1.00
H2       0.38910    0.63821    0.63617   1.00
H2       0.29708    0.50979    0.87975   1.00
H2       0.33822    0.63835    0.62851   1.00
H2       0.30162    0.48970    0.83261   1.00
H2       0.35717    0.64963    0.67498   1.00
C4       0.50230    0.99580    0.73025   1.00
C4       0.50166    0.99439    0.77191   1.00
C3       0.53473    1.01080    0.70897   1.00
C3       0.53484    1.00401    0.79504   1.00
C3       0.46950    0.98185    0.70854   1.00
C3       0.46675    0.98293    0.79170   1.00
C2       0.50445    0.99690    0.64595   1.00
C2       0.49981    0.99341    0.85622   1.00
C3       0.53592    1.01118    0.66811   1.00
C3       0.53397    1.00375    0.83591   1.00
C3       0.47197    0.98255    0.66696   1.00
C3       0.46700    0.98325    0.83336   1.00
H1       0.55854    1.02237    0.72237   1.00
H1       0.56102    1.01120    0.78306   1.00
C5       0.43536    0.96793    0.72835   1.00
C5       0.43291    0.97135    0.76998   1.00
H1       0.56022    1.02224    0.65451   1.00
H1       0.55884    1.01114    0.85091   1.00
H1       0.44934    0.97264    0.65052   1.00
H1       0.44266    0.97554    0.84848   1.00
C6       0.40262    0.94944    0.70515   1.00
C6       0.39498    0.96332    0.79119   1.00
H2       0.41507    0.92981    0.68345   1.00
H2       0.39037    0.98589    0.81310   1.00
H2       0.38556    0.92941    0.72286   1.00
H2       0.36986    0.96752    0.77228   1.00
C6       0.37451    0.98007    0.68606   1.00
C6       0.39304    0.92141    0.80942   1.00
H2       0.39165    1.00355    0.67292   1.00
H2       0.42071    0.91475    0.82383   1.00
C6       0.34505    0.96496    0.65459   1.00
C6       0.35939    0.91285    0.83911   1.00
H2       0.35790    0.99391    0.70949   1.00
H2       0.39080    0.90050    0.78546   1.00
C6       0.36632    0.95046    0.61735   1.00
C6       0.36401    0.93706    0.87708   1.00
C6       0.31896    0.93176    0.67074   1.00
C6       0.31875    0.92101    0.82107   1.00
C6       0.31807    0.99928    0.64245   1.00
C6       0.36106    0.86903    0.85054   1.00
H2       0.38549    0.97304    0.60558   1.00
H2       0.39269    0.93243    0.89020   1.00
H2       0.38402    0.92475    0.62330   1.00
H2       0.36072    0.96817    0.87154   1.00
H2       0.34551    0.94254    0.59459   1.00
H2       0.34203    0.92892    0.89863   1.00
H2       0.29671    0.92336    0.64955   1.00
H2       0.29545    0.91232    0.84098   1.00
H2       0.33622    0.90585    0.67725   1.00
H2       0.31502    0.95200    0.81494   1.00
H2       0.30427    0.94094    0.69745   1.00
H2       0.31506    0.90493    0.79385   1.00
H2       0.33505    1.02341    0.63042   1.00
H2       0.38910    0.86179    0.86383   1.00
H2       0.29708    0.99021    0.62025   1.00
H2       0.33822    0.86165    0.87149   1.00
H2       0.30162    1.01030    0.66739   1.00
H2       0.35717    0.85037    0.82502   1.00
C4       0.49580    1.23025    0.50230   1.00
C4       0.49439    1.27191    0.50166   1.00
C3       0.51080    1.20897    0.53473   1.00
C3       0.50401    1.29504    0.53484   1.00
C3       0.48185    1.20854    0.46950   1.00
C3       0.48293    1.29170    0.46675   1.00
C2       0.49690    1.14595    0.50445   1.00
C2       0.49341    1.35622    0.49981   1.00
C3       0.51118    1.16811    0.53592   1.00
C3       0.50375    1.33591    0.53397   1.00
C3       0.48255    1.16696    0.47197   1.00
C3       0.48325    1.33336    0.46700   1.00
H1       0.52237    1.22237    0.55854   1.00
H1       0.51120    1.28306    0.56102   1.00
C5       0.46793    1.22835    0.43536   1.00
C5       0.47135    1.26998    0.43291   1.00
H1       0.52224    1.15451    0.56022   1.00
H1       0.51114    1.35091    0.55884   1.00
H1       0.47264    1.15052    0.44934   1.00
H1       0.47554    1.34848    0.44266   1.00
C6       0.44944    1.20515    0.40262   1.00
C6       0.46332    1.29119    0.39498   1.00
H2       0.42981    1.18345    0.41507   1.00
H2       0.48589    1.31310    0.39037   1.00
H2       0.42941    1.22286    0.38556   1.00
H2       0.46752    1.27228    0.36986   1.00
C6       0.48007    1.18606    0.37451   1.00
C6       0.42141    1.30942    0.39304   1.00
H2       0.50355    1.17292    0.39165   1.00
H2       0.41475    1.32383    0.42071   1.00
C6       0.46496    1.15459    0.34505   1.00
C6       0.41285    1.33911    0.35939   1.00
H2       0.49391    1.20949    0.35790   1.00
H2       0.40050    1.28546    0.39080   1.00
C6       0.45046    1.11735    0.36632   1.00
C6       0.43706    1.37708    0.36401   1.00
C6       0.43176    1.17074    0.31896   1.00
C6       0.42101    1.32107    0.31875   1.00
C6       0.49928    1.14245    0.31807   1.00
C6       0.36903    1.35054    0.36106   1.00
H2       0.47304    1.10558    0.38549   1.00
H2       0.43243    1.39020    0.39269   1.00
H2       0.42475    1.12330    0.38402   1.00
H2       0.46817    1.37154    0.36072   1.00
H2       0.44254    1.09459    0.34551   1.00
H2       0.42892    1.39863    0.34203   1.00
H2       0.42336    1.14955    0.29671   1.00
H2       0.41232    1.34098    0.29545   1.00
H2       0.40585    1.17725    0.33622   1.00
H2       0.45200    1.31494    0.31502   1.00
H2       0.44094    1.19745    0.30427   1.00
H2       0.40493    1.29385    0.31506   1.00
H2       0.52341    1.13042    0.33505   1.00
H2       0.36179    1.36383    0.38910   1.00
H2       0.49021    1.12025    0.29708   1.00
H2       0.36165    1.37149    0.33822   1.00
H2       0.51030    1.16739    0.30162   1.00
H2       0.35037    1.32502    0.35717   1.00
C4       0.26975    1.00230    0.50420   1.00
C4       0.22809    1.00166    0.50561   1.00
C3       0.29103    1.03473    0.48920   1.00
C3       0.20496    1.03484    0.49599   1.00
C3       0.29146    0.96950    0.51815   1.00
C3       0.20830    0.96675    0.51707   1.00
C2       0.35405    1.00445    0.50310   1.00
C2       0.14378    0.99981    0.50659   1.00
C3       0.33189    1.03592    0.48882   1.00
C3       0.16409    1.03397    0.49625   1.00
C3       0.33304    0.97197    0.51745   1.00
C3       0.16664    0.96700    0.51675   1.00
H1       0.27763    1.05854    0.47763   1.00
H1       0.21694    1.06102    0.48880   1.00
C5       0.27165    0.93536    0.53207   1.00
C5       0.23002    0.93291    0.52865   1.00
H1       0.34549    1.06022    0.47776   1.00
H1       0.14909    1.05884    0.48886   1.00
H1       0.34948    0.94934    0.52736   1.00
H1       0.15152    0.94266    0.52446   1.00
C6       0.29485    0.90262    0.55056   1.00
C6       0.20881    0.89498    0.53668   1.00
H2       0.31655    0.91507    0.57019   1.00
H2       0.18690    0.89037    0.51411   1.00
H2       0.27714    0.88556    0.57059   1.00
H2       0.22772    0.86986    0.53248   1.00
C6       0.31394    0.87451    0.51993   1.00
C6       0.19058    0.89304    0.57859   1.00
H2       0.32708    0.89165    0.49645   1.00
H2       0.17617    0.92071    0.58525   1.00
C6       0.34541    0.84505    0.53504   1.00
C6       0.16089    0.85939    0.58715   1.00
H2       0.29051    0.85790    0.50609   1.00
H2       0.21454    0.89080    0.59950   1.00
C6       0.38265    0.86632    0.54954   1.00
C6       0.12292    0.86401    0.56294   1.00
C6       0.32926    0.81896    0.56824   1.00
C6       0.17893    0.81875    0.57899   1.00
C6       0.35755    0.81807    0.50072   1.00
C6       0.14946    0.86106    0.63097   1.00
H2       0.39442    0.88549    0.52696   1.00
H2       0.10980    0.89269    0.56757   1.00
H2       0.37670    0.88402    0.57525   1.00
H2       0.12846    0.86072    0.53183   1.00
H2       0.40541    0.84551    0.55746   1.00
H2       0.10137    0.84203    0.57108   1.00
H2       0.35045    0.79671    0.57664   1.00
H2       0.15902    0.79545    0.58768   1.00
H2       0.32275    0.83622    0.59415   1.00
H2       0.18506    0.81502    0.54800   1.00
H2       0.30255    0.80427    0.55906   1.00
H2       0.20615    0.81506    0.59507   1.00
H2       0.36958    0.83505    0.47659   1.00
H2       0.13617    0.88910    0.63821   1.00
H2       0.37975    0.79708    0.50979   1.00
H2       0.12851    0.83822    0.63835   1.00
H2       0.33261    0.80162    0.48970   1.00
H2       0.17498    0.85717    0.64963   1.00
C4       0.73025    1.00230    0.49580   1.00
C4       0.77191    1.00166    0.49439   1.00
C3       0.70897    1.03473    0.51080   1.00
C3       0.79504    1.03484    0.50401   1.00
C3       0.70854    0.96950    0.48185   1.00
C3       0.79170    0.96675    0.48293   1.00
C2       0.64595    1.00445    0.49690   1.00
C2       0.85622    0.99981    0.49341   1.00
C3       0.66811    1.03592    0.51118   1.00
C3       0.83591    1.03397    0.50375   1.00
C3       0.66696    0.97197    0.48255   1.00
C3       0.83336    0.96700    0.48325   1.00
H1       0.72237    1.05854    0.52237   1.00
H1       0.78306    1.06102    0.51120   1.00
C5       0.72835    0.93536    0.46793   1.00
C5       0.76998    0.93291    0.47135   1.00
H1       0.65451    1.06022    0.52224   1.00
H1       0.85091    1.05884    0.51114   1.00
H1       0.65052    0.94934    0.47264   1.00
H1       0.84848    0.94266    0.47554   1.00
C6       0.70515    0.90262    0.44944   1.00
C6       0.79119    0.89498    0.46332   1.00
H2       0.68345    0.91507    0.42981   1.00
H2       0.81310    0.89037    0.48589   1.00
H2       0.72286    0.88556    0.42941   1.00
H2       0.77228    0.86986    0.46752   1.00
C6       0.68606    0.87451    0.48007   1.00
C6       0.80942    0.89304    0.42141   1.00
H2       0.67292    0.89165    0.50355   1.00
H2       0.82383    0.92071    0.41475   1.00
C6       0.65459    0.84505    0.46496   1.00
C6       0.83911    0.85939    0.41285   1.00
H2       0.70949    0.85790    0.49391   1.00
H2       0.78546    0.89080    0.40050   1.00
C6       0.61735    0.86632    0.45046   1.00
C6       0.87708    0.86401    0.43706   1.00
C6       0.67074    0.81896    0.43176   1.00
C6       0.82107    0.81875    0.42101   1.00
C6       0.64245    0.81807    0.49928   1.00
C6       0.85054    0.86106    0.36903   1.00
H2       0.60558    0.88549    0.47304   1.00
H2       0.89020    0.89269    0.43243   1.00
H2       0.62330    0.88402    0.42475   1.00
H2       0.87154    0.86072    0.46817   1.00
H2       0.59459    0.84551    0.44254   1.00
H2       0.89863    0.84203    0.42892   1.00
H2       0.64955    0.79671    0.42336   1.00
H2       0.84098    0.79545    0.41232   1.00
H2       0.67725    0.83622    0.40585   1.00
H2       0.81494    0.81502    0.45200   1.00
H2       0.69745    0.80427    0.44094   1.00
H2       0.79385    0.81506    0.40493   1.00
H2       0.63042    0.83505    0.52341   1.00
H2       0.86383    0.88910    0.36179   1.00
H2       0.62025    0.79708    0.49021   1.00
H2       0.87149    0.83822    0.36165   1.00
H2       0.66739    0.80162    0.51030   1.00
H2       0.82502    0.85717    0.35037   1.00
C4       0.50420    0.76975    0.50230   1.00
C4       0.50561    0.72809    0.50166   1.00
C3       0.48920    0.79103    0.53473   1.00
C3       0.49599    0.70496    0.53484   1.00
C3       0.51815    0.79146    0.46950   1.00
C3       0.51707    0.70830    0.46675   1.00
C2       0.50310    0.85405    0.50445   1.00
C2       0.50659    0.64378    0.49981   1.00
C3       0.48882    0.83189    0.53592   1.00
C3       0.49625    0.66409    0.53397   1.00
C3       0.51745    0.83304    0.47197   1.00
C3       0.51675    0.66664    0.46700   1.00
H1       0.47763    0.77763    0.55854   1.00
H1       0.48880    0.71694    0.56102   1.00
C5       0.53207    0.77165    0.43536   1.00
C5       0.52865    0.73002    0.43291   1.00
H1       0.47776    0.84549    0.56022   1.00
H1       0.48886    0.64909    0.55884   1.00
H1       0.52736    0.84948    0.44934   1.00
H1       0.52446    0.65152    0.44266   1.00
C6       0.55056    0.79485    0.40262   1.00
C6       0.53668    0.70881    0.39498   1.00
H2       0.57019    0.81655    0.41507   1.00
H2       0.51411    0.68690    0.39037   1.00
H2       0.57059    0.77714    0.38556   1.00
H2       0.53248    0.72772    0.36986   1.00
C6       0.51993    0.81394    0.37451   1.00
C6       0.57859    0.69058    0.39304   1.00
H2       0.49645    0.82708    0.39165   1.00
H2       0.58525    0.67617    0.42071   1.00
C6       0.53504    0.84541    0.34505   1.00
C6       0.58715    0.66089    0.35939   1.00
H2       0.50609    0.79051    0.35790   1.00
H2       0.59950    0.71454    0.39080   1.00
C6       0.54954    0.88265    0.36632   1.00
C6       0.56294    0.62292    0.36401   1.00
C6       0.56824    0.82926    0.31896   1.00
C6       0.57899    0.67893    0.31875   1.00
C6       0.50072    0.85755    0.31807   1.00
C6       0.63097    0.64946    0.36106   1.00
H2       0.52696    0.89442    0.38549   1.00
H2       0.56757    0.60980    0.39269   1.00
H2       0.57525    0.87670    0.38402   1.00
H2       0.53183    0.62846    0.36072   1.00
H2       0.55746    0.90541    0.34551   1.00
H2       0.57108    0.60137    0.34203   1.00
H2       0.57664    0.85045    0.29671   1.00
H2       0.58768    0.65902    0.29545   1.00
H2       0.59415    0.82275    0.33622   1.00
H2       0.54800    0.68506    0.31502   1.00
H2       0.55906    0.80255    0.30427   1.00
H2       0.59507    0.70615    0.31506   1.00
H2       0.47659    0.86958    0.33505   1.00
H2       0.63821    0.63617    0.38910   1.00
H2       0.50979    0.87975    0.29708   1.00
H2       0.63835    0.62851    0.33822   1.00
H2       0.48970    0.83261    0.30162   1.00
H2       0.64963    0.67498    0.35717   1.00
C4       0.50230    1.00420    0.26975   1.00
C4       0.50166    1.00561    0.22809   1.00
C3       0.53473    0.98920    0.29103   1.00
C3       0.53484    0.99599    0.20496   1.00
C3       0.46950    1.01815    0.29146   1.00
C3       0.46675    1.01707    0.20830   1.00
C2       0.50445    1.00310    0.35405   1.00
C2       0.49981    1.00659    0.14378   1.00
C3       0.53592    0.98882    0.33189   1.00
C3       0.53397    0.99625    0.16409   1.00
C3       0.47197    1.01745    0.33304   1.00
C3       0.46700    1.01675    0.16664   1.00
H1       0.55854    0.97763    0.27763   1.00
H1       0.56102    0.98880    0.21694   1.00
C5       0.43536    1.03207    0.27165   1.00
C5       0.43291    1.02865    0.23002   1.00
H1       0.56022    0.97776    0.34549   1.00
H1       0.55884    0.98886    0.14909   1.00
H1       0.44934    1.02736    0.34948   1.00
H1       0.44266    1.02446    0.15152   1.00
C6       0.40262    1.05056    0.29485   1.00
C6       0.39498    1.03668    0.20881   1.00
H2       0.41507    1.07019    0.31655   1.00
H2       0.39037    1.01411    0.18690   1.00
H2       0.38556    1.07059    0.27714   1.00
H2       0.36986    1.03248    0.22772   1.00
C6       0.37451    1.01993    0.31394   1.00
C6       0.39304    1.07859    0.19058   1.00
H2       0.39165    0.99645    0.32708   1.00
H2       0.42071    1.08525    0.17617   1.00
C6       0.34505    1.03504    0.34541   1.00
C6       0.35939    1.08715    0.16089   1.00
H2       0.35790    1.00609    0.29051   1.00
H2       0.39080    1.09950    0.21454   1.00
C6       0.36632    1.04954    0.38265   1.00
C6       0.36401    1.06294    0.12292   1.00
C6       0.31896    1.06824    0.32926   1.00
C6       0.31875    1.07899    0.17893   1.00
C6       0.31807    1.00072    0.35755   1.00
C6       0.36106    1.13097    0.14946   1.00
H2       0.38549    1.02696    0.39442   1.00
H2       0.39269    1.06757    0.10980   1.00
H2       0.38402    1.07525    0.37670   1.00
H2       0.36072    1.03183    0.12846   1.00
H2       0.34551    1.05746    0.40541   1.00
H2       0.34203    1.07108    0.10137   1.00
H2       0.29671    1.07664    0.35045   1.00
H2       0.29545    1.08768    0.15902   1.00
H2       0.33622    1.09415    0.32275   1.00
H2       0.31502    1.04800    0.18506   1.00
H2       0.30427    1.05906    0.30255   1.00
H2       0.31506    1.09507    0.20615   1.00
H2       0.33505    0.97659    0.36958   1.00
H2       0.38910    1.13821    0.13617   1.00
H2       0.29708    1.00979    0.37975   1.00
H2       0.33822    1.13835    0.12851   1.00
H2       0.30162    0.98970    0.33261   1.00
H2       0.35717    1.14963    0.17498   1.00
C4       1.00230    0.49580    0.73025   1.00
C4       1.00166    0.49439    0.77191   1.00
C3       1.03473    0.51080    0.70897   1.00
C3       1.03484    0.50401    0.79504   1.00
C3       0.96950    0.48185    0.70854   1.00
C3       0.96675    0.48293    0.79170   1.00
C2       1.00445    0.49690    0.64595   1.00
C2       0.99981    0.49341    0.85622   1.00
C3       1.03592    0.51118    0.66811   1.00
C3       1.03397    0.50375    0.83591   1.00
C3       0.97197    0.48255    0.66696   1.00
C3       0.96700    0.48325    0.83336   1.00
H1       1.05854    0.52237    0.72237   1.00
H1       1.06102    0.51120    0.78306   1.00
C5       0.93536    0.46793    0.72835   1.00
C5       0.93291    0.47135    0.76998   1.00
H1       1.06022    0.52224    0.65451   1.00
H1       1.05884    0.51114    0.85091   1.00
H1       0.94934    0.47264    0.65052   1.00
H1       0.94266    0.47554    0.84848   1.00
C6       0.90262    0.44944    0.70515   1.00
C6       0.89498    0.46332    0.79119   1.00
H2       0.91507    0.42981    0.68345   1.00
H2       0.89037    0.48589    0.81310   1.00
H2       0.88556    0.42941    0.72286   1.00
H2       0.86986    0.46752    0.77228   1.00
C6       0.87451    0.48007    0.68606   1.00
C6       0.89304    0.42141    0.80942   1.00
H2       0.89165    0.50355    0.67292   1.00
H2       0.92071    0.41475    0.82383   1.00
C6       0.84505    0.46496    0.65459   1.00
C6       0.85939    0.41285    0.83911   1.00
H2       0.85790    0.49391    0.70949   1.00
H2       0.89080    0.40050    0.78546   1.00
C6       0.86632    0.45046    0.61735   1.00
C6       0.86401    0.43706    0.87708   1.00
C6       0.81896    0.43176    0.67074   1.00
C6       0.81875    0.42101    0.82107   1.00
C6       0.81807    0.49928    0.64245   1.00
C6       0.86106    0.36903    0.85054   1.00
H2       0.88549    0.47304    0.60558   1.00
H2       0.89269    0.43243    0.89020   1.00
H2       0.88402    0.42475    0.62330   1.00
H2       0.86072    0.46817    0.87154   1.00
H2       0.84551    0.44254    0.59459   1.00
H2       0.84203    0.42892    0.89863   1.00
H2       0.79671    0.42336    0.64955   1.00
H2       0.79545    0.41232    0.84098   1.00
H2       0.83622    0.40585    0.67725   1.00
H2       0.81502    0.45200    0.81494   1.00
H2       0.80427    0.44094    0.69745   1.00
H2       0.81506    0.40493    0.79385   1.00
H2       0.83505    0.52341    0.63042   1.00
H2       0.88910    0.36179    0.86383   1.00
H2       0.79708    0.49021    0.62025   1.00
H2       0.83822    0.36165    0.87149   1.00
H2       0.80162    0.51030    0.66739   1.00
H2       0.85717    0.35037    0.82502   1.00
C4       0.99580    0.73025    0.50230   1.00
C4       0.99439    0.77191    0.50166   1.00
C3       1.01080    0.70897    0.53473   1.00
C3       1.00401    0.79504    0.53484   1.00
C3       0.98185    0.70854    0.46950   1.00
C3       0.98293    0.79170    0.46675   1.00
C2       0.99690    0.64595    0.50445   1.00
C2       0.99341    0.85622    0.49981   1.00
C3       1.01118    0.66811    0.53592   1.00
C3       1.00375    0.83591    0.53397   1.00
C3       0.98255    0.66696    0.47197   1.00
C3       0.98325    0.83336    0.46700   1.00
H1       1.02237    0.72237    0.55854   1.00
H1       1.01120    0.78306    0.56102   1.00
C5       0.96793    0.72835    0.43536   1.00
C5       0.97135    0.76998    0.43291   1.00
H1       1.02224    0.65451    0.56022   1.00
H1       1.01114    0.85091    0.55884   1.00
H1       0.97264    0.65052    0.44934   1.00
H1       0.97554    0.84848    0.44266   1.00
C6       0.94944    0.70515    0.40262   1.00
C6       0.96332    0.79119    0.39498   1.00
H2       0.92981    0.68345    0.41507   1.00
H2       0.98589    0.81310    0.39037   1.00
H2       0.92941    0.72286    0.38556   1.00
H2       0.96752    0.77228    0.36986   1.00
C6       0.98007    0.68606    0.37451   1.00
C6       0.92141    0.80942    0.39304   1.00
H2       1.00355    0.67292    0.39165   1.00
H2       0.91475    0.82383    0.42071   1.00
C6       0.96496    0.65459    0.34505   1.00
C6       0.91285    0.83911    0.35939   1.00
H2       0.99391    0.70949    0.35790   1.00
H2       0.90050    0.78546    0.39080   1.00
C6       0.95046    0.61735    0.36632   1.00
C6       0.93706    0.87708    0.36401   1.00
C6       0.93176    0.67074    0.31896   1.00
C6       0.92101    0.82107    0.31875   1.00
C6       0.99928    0.64245    0.31807   1.00
C6       0.86903    0.85054    0.36106   1.00
H2       0.97304    0.60558    0.38549   1.00
H2       0.93243    0.89020    0.39269   1.00
H2       0.92475    0.62330    0.38402   1.00
H2       0.96817    0.87154    0.36072   1.00
H2       0.94254    0.59459    0.34551   1.00
H2       0.92892    0.89863    0.34203   1.00
H2       0.92336    0.64955    0.29671   1.00
H2       0.91232    0.84098    0.29545   1.00
H2       0.90585    0.67725    0.33622   1.00
H2       0.95200    0.81494    0.31502   1.00
H2       0.94094    0.69745    0.30427   1.00
H2       0.90493    0.79385    0.31506   1.00
H2       1.02341    0.63042    0.33505   1.00
H2       0.86179    0.86383    0.38910   1.00
H2       0.99021    0.62025    0.29708   1.00
H2       0.86165    0.87149    0.33822   1.00
H2       1.01030    0.66739    0.30162   1.00
H2       0.85037    0.82502    0.35717   1.00
C4       0.76975    0.50230    0.50420   1.00
C4       0.72809    0.50166    0.50561   1.00
C3       0.79103    0.53473    0.48920   1.00
C3       0.70496    0.53484    0.49599   1.00
C3       0.79146    0.46950    0.51815   1.00
C3       0.70830    0.46675    0.51707   1.00
C2       0.85405    0.50445    0.50310   1.00
C2       0.64378    0.49981    0.50659   1.00
C3       0.83189    0.53592    0.48882   1.00
C3       0.66409    0.53397    0.49625   1.00
C3       0.83304    0.47197    0.51745   1.00
C3       0.66664    0.46700    0.51675   1.00
H1       0.77763    0.55854    0.47763   1.00
H1       0.71694    0.56102    0.48880   1.00
C5       0.77165    0.43536    0.53207   1.00
C5       0.73002    0.43291    0.52865   1.00
H1       0.84549    0.56022    0.47776   1.00
H1       0.64909    0.55884    0.48886   1.00
H1       0.84948    0.44934    0.52736   1.00
H1       0.65152    0.44266    0.52446   1.00
C6       0.79485    0.40262    0.55056   1.00
C6       0.70881    0.39498    0.53668   1.00
H2       0.81655    0.41507    0.57019   1.00
H2       0.68690    0.39037    0.51411   1.00
H2       0.77714    0.38556    0.57059   1.00
H2       0.72772    0.36986    0.53248   1.00
C6       0.81394    0.37451    0.51993   1.00
C6       0.69058    0.39304    0.57859   1.00
H2       0.82708    0.39165    0.49645   1.00
H2       0.67617    0.42071    0.58525   1.00
C6       0.84541    0.34505    0.53504   1.00
C6       0.66089    0.35939    0.58715   1.00
H2       0.79051    0.35790    0.50609   1.00
H2       0.71454    0.39080    0.59950   1.00
C6       0.88265    0.36632    0.54954   1.00
C6       0.62292    0.36401    0.56294   1.00
C6       0.82926    0.31896    0.56824   1.00
C6       0.67893    0.31875    0.57899   1.00
C6       0.85755    0.31807    0.50072   1.00
C6       0.64946    0.36106    0.63097   1.00
H2       0.89442    0.38549    0.52696   1.00
H2       0.60980    0.39269    0.56757   1.00
H2       0.87670    0.38402    0.57525   1.00
H2       0.62846    0.36072    0.53183   1.00
H2       0.90541    0.34551    0.55746   1.00
H2       0.60137    0.34203    0.57108   1.00
H2       0.85045    0.29671    0.57664   1.00
H2       0.65902    0.29545    0.58768   1.00
H2       0.82275    0.33622    0.59415   1.00
H2       0.68506    0.31502    0.54800   1.00
H2       0.80255    0.30427    0.55906   1.00
H2       0.70615    0.31506    0.59507   1.00
H2       0.86958    0.33505    0.47659   1.00
H2       0.63617    0.38910    0.63821   1.00
H2       0.87975    0.29708    0.50979   1.00
H2       0.62851    0.33822    0.63835   1.00
H2       0.83261    0.30162    0.48970   1.00
H2       0.67498    0.35717    0.64963   1.00
C4       1.23025    0.50230    0.49580   1.00
C4       1.27191    0.50166    0.49439   1.00
C3       1.20897    0.53473    0.51080   1.00
C3       1.29504    0.53484    0.50401   1.00
C3       1.20854    0.46950    0.48185   1.00
C3       1.29170    0.46675    0.48293   1.00
C2       1.14595    0.50445    0.49690   1.00
C2       1.35622    0.49981    0.49341   1.00
C3       1.16811    0.53592    0.51118   1.00
C3       1.33591    0.53397    0.50375   1.00
C3       1.16696    0.47197    0.48255   1.00
C3       1.33336    0.46700    0.48325   1.00
H1       1.22237    0.55854    0.52237   1.00
H1       1.28306    0.56102    0.51120   1.00
C5       1.22835    0.43536    0.46793   1.00
C5       1.26998    0.43291    0.47135   1.00
H1       1.15451    0.56022    0.52224   1.00
H1       1.35091    0.55884    0.51114   1.00
H1       1.15052    0.44934    0.47264   1.00
H1       1.34848    0.44266    0.47554   1.00
C6       1.20515    0.40262    0.44944   1.00
C6       1.29119    0.39498    0.46332   1.00
H2       1.18345    0.41507    0.42981   1.00
H2       1.31310    0.39037    0.48589   1.00
H2       1.22286    0.38556    0.42941   1.00
H2       1.27228    0.36986    0.46752   1.00
C6       1.18606    0.37451    0.48007   1.00
C6       1.30942    0.39304    0.42141   1.00
H2       1.17292    0.39165    0.50355   1.00
H2       1.32383    0.42071    0.41475   1.00
C6       1.15459    0.34505    0.46496   1.00
C6       1.33911    0.35939    0.41285   1.00
H2       1.20949    0.35790    0.49391   1.00
H2       1.28546    0.39080    0.40050   1.00
C6       1.11735    0.36632    0.45046   1.00
C6       1.37708    0.36401    0.43706   1.00
C6       1.17074    0.31896    0.43176   1.00
C6       1.32107    0.31875    0.42101   1.00
C6       1.14245    0.31807    0.49928   1.00
C6       1.35054    0.36106    0.36903   1.00
H2       1.10558    0.38549    0.47304   1.00
H2       1.39020    0.39269    0.43243   1.00
H2       1.12330    0.38402    0.42475   1.00
H2       1.37154    0.36072    0.46817   1.00
H2       1.09459    0.34551    0.44254   1.00
H2       1.39863    0.34203    0.42892   1.00
H2       1.14955    0.29671    0.42336   1.00
H2       1.34098    0.29545    0.41232   1.00
H2       1.17725    0.33622    0.40585   1.00
H2       1.31494    0.31502    0.45200   1.00
H2       1.19745    0.30427    0.44094   1.00
H2       1.29385    0.31506    0.40493   1.00
H2       1.13042    0.33505    0.52341   1.00
H2       1.36383    0.38910    0.36179   1.00
H2       1.12025    0.29708    0.49021   1.00
H2       1.37149    0.33822    0.36165   1.00
H2       1.16739    0.30162    0.51030   1.00
H2       1.32502    0.35717    0.35037   1.00
C4       1.00420    0.26975    0.50230   1.00
C4       1.00561    0.22809    0.50166   1.00
C3       0.98920    0.29103    0.53473   1.00
C3       0.99599    0.20496    0.53484   1.00
C3       1.01815    0.29146    0.46950   1.00
C3       1.01707    0.20830    0.46675   1.00
C2       1.00310    0.35405    0.50445   1.00
C2       1.00659    0.14378    0.49981   1.00
C3       0.98882    0.33189    0.53592   1.00
C3       0.99625    0.16409    0.53397   1.00
C3       1.01745    0.33304    0.47197   1.00
C3       1.01675    0.16664    0.46700   1.00
H1       0.97763    0.27763    0.55854   1.00
H1       0.98880    0.21694    0.56102   1.00
C5       1.03207    0.27165    0.43536   1.00
C5       1.02865    0.23002    0.43291   1.00
H1       0.97776    0.34549    0.56022   1.00
H1       0.98886    0.14909    0.55884   1.00
H1       1.02736    0.34948    0.44934   1.00
H1       1.02446    0.15152    0.44266   1.00
C6       1.05056    0.29485    0.40262   1.00
C6       1.03668    0.20881    0.39498   1.00
H2       1.07019    0.31655    0.41507   1.00
H2       1.01411    0.18690    0.39037   1.00
H2       1.07059    0.27714    0.38556   1.00
H2       1.03248    0.22772    0.36986   1.00
C6       1.01993    0.31394    0.37451   1.00
C6       1.07859    0.19058    0.39304   1.00
H2       0.99645    0.32708    0.39165   1.00
H2       1.08525    0.17617    0.42071   1.00
C6       1.03504    0.34541    0.34505   1.00
C6       1.08715    0.16089    0.35939   1.00
H2       1.00609    0.29051    0.35790   1.00
H2       1.09950    0.21454    0.39080   1.00
C6       1.04954    0.38265    0.36632   1.00
C6       1.06294    0.12292    0.36401   1.00
C6       1.06824    0.32926    0.31896   1.00
C6       1.07899    0.17893    0.31875   1.00
C6       1.00072    0.35755    0.31807   1.00
C6       1.13097    0.14946    0.36106   1.00
H2       1.02696    0.39442    0.38549   1.00
H2       1.06757    0.10980    0.39269   1.00
H2       1.07525    0.37670    0.38402   1.00
H2       1.03183    0.12846    0.36072   1.00
H2       1.05746    0.40541    0.34551   1.00
H2       1.07108    0.10137    0.34203   1.00
H2       1.07664    0.35045    0.29671   1.00
H2       1.08768    0.15902    0.29545   1.00
H2       1.09415    0.32275    0.33622   1.00
H2       1.04800    0.18506    0.31502   1.00
H2       1.05906    0.30255    0.30427   1.00
H2       1.09507    0.20615    0.31506   1.00
H2       0.97659    0.36958    0.33505   1.00
H2       1.13821    0.13617    0.38910   1.00
H2       1.00979    0.37975    0.29708   1.00
H2       1.13835    0.12851    0.33822   1.00
H2       0.98970    0.33261    0.30162   1.00
H2       1.14963    0.17498    0.35717   1.00
C4       1.00230    0.50420    0.26975   1.00
C4       1.00166    0.50561    0.22809   1.00
C3       1.03473    0.48920    0.29103   1.00
C3       1.03484    0.49599    0.20496   1.00
C3       0.96950    0.51815    0.29146   1.00
C3       0.96675    0.51707    0.20830   1.00
C2       1.00445    0.50310    0.35405   1.00
C2       0.99981    0.50659    0.14378   1.00
C3       1.03592    0.48882    0.33189   1.00
C3       1.03397    0.49625    0.16409   1.00
C3       0.97197    0.51745    0.33304   1.00
C3       0.96700    0.51675    0.16664   1.00
H1       1.05854    0.47763    0.27763   1.00
H1       1.06102    0.48880    0.21694   1.00
C5       0.93536    0.53207    0.27165   1.00
C5       0.93291    0.52865    0.23002   1.00
H1       1.06022    0.47776    0.34549   1.00
H1       1.05884    0.48886    0.14909   1.00
H1       0.94934    0.52736    0.34948   1.00
H1       0.94266    0.52446    0.15152   1.00
C6       0.90262    0.55056    0.29485   1.00
C6       0.89498    0.53668    0.20881   1.00
H2       0.91507    0.57019    0.31655   1.00
H2       0.89037    0.51411    0.18690   1.00
H2       0.88556    0.57059    0.27714   1.00
H2       0.86986    0.53248    0.22772   1.00
C6       0.87451    0.51993    0.31394   1.00
C6       0.89304    0.57859    0.19058   1.00
H2       0.89165    0.49645    0.32708   1.00
H2       0.92071    0.58525    0.17617   1.00
C6       0.84505    0.53504    0.34541   1.00
C6       0.85939    0.58715    0.16089   1.00
H2       0.85790    0.50609    0.29051   1.00
H2       0.89080    0.59950    0.21454   1.00
C6       0.86632    0.54954    0.38265   1.00
C6       0.86401    0.56294    0.12292   1.00
C6       0.81896    0.56824    0.32926   1.00
C6       0.81875    0.57899    0.17893   1.00
C6       0.81807    0.50072    0.35755   1.00
C6       0.86106    0.63097    0.14946   1.00
H2       0.88549    0.52696    0.39442   1.00
H2       0.89269    0.56757    0.10980   1.00
H2       0.88402    0.57525    0.37670   1.00
H2       0.86072    0.53183    0.12846   1.00
H2       0.84551    0.55746    0.40541   1.00
H2       0.84203    0.57108    0.10137   1.00
H2       0.79671    0.57664    0.35045   1.00
H2       0.79545    0.58768    0.15902   1.00
H2       0.83622    0.59415    0.32275   1.00
H2       0.81502    0.54800    0.18506   1.00
H2       0.80427    0.55906    0.30255   1.00
H2       0.81506    0.59507    0.20615   1.00
H2       0.83505    0.47659    0.36958   1.00
H2       0.88910    0.63821    0.13617   1.00
H2       0.79708    0.50979    0.37975   1.00
H2       0.83822    0.63835    0.12851   1.00
H2       0.80162    0.48970    0.33261   1.00
H2       0.85717    0.64963    0.17498   1.00
