data_IRMOF10_SG202_interpen_Ligand11lp_label_q.

_audit_creation_method             'generated by an auxiliary program of Tobunporous'

_symmetry_space_group_name_H-M     'P 1'
_symmetry_Int_Tables_number        1
_symmetry_cell_setting             triclinic

_cell_length_a                    34.2800
_cell_length_b                    34.2800
_cell_length_c                    34.2800
_cell_angle_alpha                 90.0000
_cell_angle_beta                  90.0000
_cell_angle_gamma                 90.0000

loop_
_atom_site_label
_atom_site_fract_x
_atom_site_fract_y
_atom_site_fract_z
_atom_site_occupancy
O1       0.75000    0.75000    0.75000   1.00
Zn1      0.71720    0.78280    0.78280   1.00
Zn1      0.78280    0.71720    0.78280   1.00
Zn1      0.78280    0.78280    0.71720   1.00
Zn1      0.71720    0.71720    0.71720   1.00
O2       0.72650    0.77350    0.83820   1.00
O2       0.72650    0.83820    0.77350   1.00
O2       0.66180    0.77350    0.77350   1.00
O2       0.77350    0.72650    0.83820   1.00
O2       0.83820    0.72650    0.77350   1.00
O2       0.77350    0.66180    0.77350   1.00
O2       0.77350    0.83820    0.72650   1.00
O2       0.83820    0.77350    0.72650   1.00
O2       0.77350    0.77350    0.66180   1.00
O2       0.66180    0.72650    0.72650   1.00
O2       0.72650    0.66180    0.72650   1.00
O2       0.72650    0.72650    0.66180   1.00
C1       0.75000    0.75000    0.85520   1.00
C1       0.75000    0.85520    0.75000   1.00
C1       0.64480    0.75000    0.75000   1.00
C1       0.85520    0.75000    0.75000   1.00
C1       0.75000    0.64480    0.75000   1.00
C1       0.75000    0.75000    0.64480   1.00
O1       0.25000    0.25000    0.75000   1.00
Zn1      0.21720    0.28280    0.78280   1.00
Zn1      0.28280    0.21720    0.78280   1.00
Zn1      0.28280    0.28280    0.71720   1.00
Zn1      0.21720    0.21720    0.71720   1.00
O2       0.22650    0.27350    0.83820   1.00
O2       0.22650    0.33820    0.77350   1.00
O2       0.16180    0.27350    0.77350   1.00
O2       0.27350    0.22650    0.83820   1.00
O2       0.33820    0.22650    0.77350   1.00
O2       0.27350    0.16180    0.77350   1.00
O2       0.27350    0.33820    0.72650   1.00
O2       0.33820    0.27350    0.72650   1.00
O2       0.27350    0.27350    0.66180   1.00
O2       0.16180    0.22650    0.72650   1.00
O2       0.22650    0.16180    0.72650   1.00
O2       0.22650    0.22650    0.66180   1.00
C1       0.25000    0.25000    0.85520   1.00
C1       0.25000    0.35520    0.75000   1.00
C1       0.14480    0.25000    0.75000   1.00
C1       0.35520    0.25000    0.75000   1.00
C1       0.25000    0.14480    0.75000   1.00
C1       0.25000    0.25000    0.64480   1.00
O1       0.25000    0.75000    0.25000   1.00
Zn1      0.21720    0.78280    0.28280   1.00
Zn1      0.28280    0.71720    0.28280   1.00
Zn1      0.28280    0.78280    0.21720   1.00
Zn1      0.21720    0.71720    0.21720   1.00
O2       0.22650    0.77350    0.33820   1.00
O2       0.22650    0.83820    0.27350   1.00
O2       0.16180    0.77350    0.27350   1.00
O2       0.27350    0.72650    0.33820   1.00
O2       0.33820    0.72650    0.27350   1.00
O2       0.27350    0.66180    0.27350   1.00
O2       0.27350    0.83820    0.22650   1.00
O2       0.33820    0.77350    0.22650   1.00
O2       0.27350    0.77350    0.16180   1.00
O2       0.16180    0.72650    0.22650   1.00
O2       0.22650    0.66180    0.22650   1.00
O2       0.22650    0.72650    0.16180   1.00
C1       0.25000    0.75000    0.35520   1.00
C1       0.25000    0.85520    0.25000   1.00
C1       0.14480    0.75000    0.25000   1.00
C1       0.35520    0.75000    0.25000   1.00
C1       0.25000    0.64480    0.25000   1.00
C1       0.25000    0.75000    0.14480   1.00
O1       0.75000    0.25000    0.25000   1.00
Zn1      0.71720    0.28280    0.28280   1.00
Zn1      0.78280    0.21720    0.28280   1.00
Zn1      0.78280    0.28280    0.21720   1.00
Zn1      0.71720    0.21720    0.21720   1.00
O2       0.72650    0.27350    0.33820   1.00
O2       0.72650    0.33820    0.27350   1.00
O2       0.66180    0.27350    0.27350   1.00
O2       0.77350    0.22650    0.33820   1.00
O2       0.83820    0.22650    0.27350   1.00
O2       0.77350    0.16180    0.27350   1.00
O2       0.77350    0.33820    0.22650   1.00
O2       0.83820    0.27350    0.22650   1.00
O2       0.77350    0.27350    0.16180   1.00
O2       0.66180    0.22650    0.22650   1.00
O2       0.72650    0.16180    0.22650   1.00
O2       0.72650    0.22650    0.16180   1.00
C1       0.75000    0.25000    0.35520   1.00
C1       0.75000    0.35520    0.25000   1.00
C1       0.64480    0.25000    0.25000   1.00
C1       0.85520    0.25000    0.25000   1.00
C1       0.75000    0.14480    0.25000   1.00
C1       0.75000    0.25000    0.14480   1.00
O1       0.25000    0.25000    0.25000   1.00
Zn1      0.28280    0.21720    0.21720   1.00
Zn1      0.21720    0.28280    0.21720   1.00
Zn1      0.21720    0.21720    0.28280   1.00
Zn1      0.28280    0.28280    0.28280   1.00
O2       0.27350    0.22650    0.16180   1.00
O2       0.27350    0.16180    0.22650   1.00
O2       0.33820    0.22650    0.22650   1.00
O2       0.22650    0.27350    0.16180   1.00
O2       0.16180    0.27350    0.22650   1.00
O2       0.22650    0.33820    0.22650   1.00
O2       0.22650    0.16180    0.27350   1.00
O2       0.16180    0.22650    0.27350   1.00
O2       0.22650    0.22650    0.33820   1.00
O2       0.33820    0.27350    0.27350   1.00
O2       0.27350    0.33820    0.27350   1.00
O2       0.27350    0.27350    0.33820   1.00
C1       0.25000    0.25000    0.14480   1.00
C1       0.25000    0.14480    0.25000   1.00
C1       0.35520    0.25000    0.25000   1.00
C1       0.14480    0.25000    0.25000   1.00
C1       0.25000    0.35520    0.25000   1.00
C1       0.25000    0.25000    0.35520   1.00
O1       0.75000    0.75000    0.25000   1.00
Zn1      0.78280    0.71720    0.21720   1.00
Zn1      0.71720    0.78280    0.21720   1.00
Zn1      0.71720    0.71720    0.28280   1.00
Zn1      0.78280    0.78280    0.28280   1.00
O2       0.77350    0.72650    0.16180   1.00
O2       0.77350    0.66180    0.22650   1.00
O2       0.83820    0.72650    0.22650   1.00
O2       0.72650    0.77350    0.16180   1.00
O2       0.66180    0.77350    0.22650   1.00
O2       0.72650    0.83820    0.22650   1.00
O2       0.72650    0.66180    0.27350   1.00
O2       0.66180    0.72650    0.27350   1.00
O2       0.72650    0.72650    0.33820   1.00
O2       0.83820    0.77350    0.27350   1.00
O2       0.77350    0.83820    0.27350   1.00
O2       0.77350    0.77350    0.33820   1.00
C1       0.75000    0.75000    0.14480   1.00
C1       0.75000    0.64480    0.25000   1.00
C1       0.85520    0.75000    0.25000   1.00
C1       0.64480    0.75000    0.25000   1.00
C1       0.75000    0.85520    0.25000   1.00
C1       0.75000    0.75000    0.35520   1.00
O1       0.75000    0.25000    0.75000   1.00
Zn1      0.78280    0.21720    0.71720   1.00
Zn1      0.71720    0.28280    0.71720   1.00
Zn1      0.71720    0.21720    0.78280   1.00
Zn1      0.78280    0.28280    0.78280   1.00
O2       0.77350    0.22650    0.66180   1.00
O2       0.77350    0.16180    0.72650   1.00
O2       0.83820    0.22650    0.72650   1.00
O2       0.72650    0.27350    0.66180   1.00
O2       0.66180    0.27350    0.72650   1.00
O2       0.72650    0.33820    0.72650   1.00
O2       0.72650    0.16180    0.77350   1.00
O2       0.66180    0.22650    0.77350   1.00
O2       0.72650    0.22650    0.83820   1.00
O2       0.83820    0.27350    0.77350   1.00
O2       0.77350    0.33820    0.77350   1.00
O2       0.77350    0.27350    0.83820   1.00
C1       0.75000    0.25000    0.64480   1.00
C1       0.75000    0.14480    0.75000   1.00
C1       0.85520    0.25000    0.75000   1.00
C1       0.64480    0.25000    0.75000   1.00
C1       0.75000    0.35520    0.75000   1.00
C1       0.75000    0.25000    0.85520   1.00
O1       0.25000    0.75000    0.75000   1.00
Zn1      0.28280    0.71720    0.71720   1.00
Zn1      0.21720    0.78280    0.71720   1.00
Zn1      0.21720    0.71720    0.78280   1.00
Zn1      0.28280    0.78280    0.78280   1.00
O2       0.27350    0.72650    0.66180   1.00
O2       0.27350    0.66180    0.72650   1.00
O2       0.33820    0.72650    0.72650   1.00
O2       0.22650    0.77350    0.66180   1.00
O2       0.16180    0.77350    0.72650   1.00
O2       0.22650    0.83820    0.72650   1.00
O2       0.22650    0.66180    0.77350   1.00
O2       0.16180    0.72650    0.77350   1.00
O2       0.22650    0.72650    0.83820   1.00
O2       0.33820    0.77350    0.77350   1.00
O2       0.27350    0.83820    0.77350   1.00
O2       0.27350    0.77350    0.83820   1.00
C1       0.25000    0.75000    0.64480   1.00
C1       0.25000    0.64480    0.75000   1.00
C1       0.35520    0.75000    0.75000   1.00
C1       0.14480    0.75000    0.75000   1.00
C1       0.25000    0.85520    0.75000   1.00
C1       0.25000    0.75000    0.85520   1.00
O1       1.00000    1.00000    1.00000   1.00
Zn1      0.96720    1.03280    1.03280   1.00
Zn1      1.03280    0.96720    1.03280   1.00
Zn1      1.03280    1.03280    0.96720   1.00
Zn1      0.96720    0.96720    0.96720   1.00
O2       0.97650    1.02350    1.08820   1.00
O2       0.97650    1.08820    1.02350   1.00
O2       0.91180    1.02350    1.02350   1.00
O2       1.02350    0.97650    1.08820   1.00
O2       1.08820    0.97650    1.02350   1.00
O2       1.02350    0.91180    1.02350   1.00
O2       1.02350    1.08820    0.97650   1.00
O2       1.08820    1.02350    0.97650   1.00
O2       1.02350    1.02350    0.91180   1.00
O2       0.91180    0.97650    0.97650   1.00
O2       0.97650    0.91180    0.97650   1.00
O2       0.97650    0.97650    0.91180   1.00
C1       1.00000    1.00000    1.10520   1.00
C1       1.00000    1.10520    1.00000   1.00
C1       0.89480    1.00000    1.00000   1.00
C1       1.10520    1.00000    1.00000   1.00
C1       1.00000    0.89480    1.00000   1.00
C1       1.00000    1.00000    0.89480   1.00
O1       0.50000    0.50000    1.00000   1.00
Zn1      0.46720    0.53280    1.03280   1.00
Zn1      0.53280    0.46720    1.03280   1.00
Zn1      0.53280    0.53280    0.96720   1.00
Zn1      0.46720    0.46720    0.96720   1.00
O2       0.47650    0.52350    1.08820   1.00
O2       0.47650    0.58820    1.02350   1.00
O2       0.41180    0.52350    1.02350   1.00
O2       0.52350    0.47650    1.08820   1.00
O2       0.58820    0.47650    1.02350   1.00
O2       0.52350    0.41180    1.02350   1.00
O2       0.52350    0.58820    0.97650   1.00
O2       0.58820    0.52350    0.97650   1.00
O2       0.52350    0.52350    0.91180   1.00
O2       0.41180    0.47650    0.97650   1.00
O2       0.47650    0.41180    0.97650   1.00
O2       0.47650    0.47650    0.91180   1.00
C1       0.50000    0.50000    1.10520   1.00
C1       0.50000    0.60520    1.00000   1.00
C1       0.39480    0.50000    1.00000   1.00
C1       0.60520    0.50000    1.00000   1.00
C1       0.50000    0.39480    1.00000   1.00
C1       0.50000    0.50000    0.89480   1.00
O1       0.50000    1.00000    0.50000   1.00
Zn1      0.46720    1.03280    0.53280   1.00
Zn1      0.53280    0.96720    0.53280   1.00
Zn1      0.53280    1.03280    0.46720   1.00
Zn1      0.46720    0.96720    0.46720   1.00
O2       0.47650    1.02350    0.58820   1.00
O2       0.47650    1.08820    0.52350   1.00
O2       0.41180    1.02350    0.52350   1.00
O2       0.52350    0.97650    0.58820   1.00
O2       0.58820    0.97650    0.52350   1.00
O2       0.52350    0.91180    0.52350   1.00
O2       0.52350    1.08820    0.47650   1.00
O2       0.58820    1.02350    0.47650   1.00
O2       0.52350    1.02350    0.41180   1.00
O2       0.41180    0.97650    0.47650   1.00
O2       0.47650    0.91180    0.47650   1.00
O2       0.47650    0.97650    0.41180   1.00
C1       0.50000    1.00000    0.60520   1.00
C1       0.50000    1.10520    0.50000   1.00
C1       0.39480    1.00000    0.50000   1.00
C1       0.60520    1.00000    0.50000   1.00
C1       0.50000    0.89480    0.50000   1.00
C1       0.50000    1.00000    0.39480   1.00
O1       1.00000    0.50000    0.50000   1.00
Zn1      0.96720    0.53280    0.53280   1.00
Zn1      1.03280    0.46720    0.53280   1.00
Zn1      1.03280    0.53280    0.46720   1.00
Zn1      0.96720    0.46720    0.46720   1.00
O2       0.97650    0.52350    0.58820   1.00
O2       0.97650    0.58820    0.52350   1.00
O2       0.91180    0.52350    0.52350   1.00
O2       1.02350    0.47650    0.58820   1.00
O2       1.08820    0.47650    0.52350   1.00
O2       1.02350    0.41180    0.52350   1.00
O2       1.02350    0.58820    0.47650   1.00
O2       1.08820    0.52350    0.47650   1.00
O2       1.02350    0.52350    0.41180   1.00
O2       0.91180    0.47650    0.47650   1.00
O2       0.97650    0.41180    0.47650   1.00
O2       0.97650    0.47650    0.41180   1.00
C1       1.00000    0.50000    0.60520   1.00
C1       1.00000    0.60520    0.50000   1.00
C1       0.89480    0.50000    0.50000   1.00
C1       1.10520    0.50000    0.50000   1.00
C1       1.00000    0.39480    0.50000   1.00
C1       1.00000    0.50000    0.39480   1.00
O1       0.50000    0.50000    0.50000   1.00
Zn1      0.53280    0.46720    0.46720   1.00
Zn1      0.46720    0.53280    0.46720   1.00
Zn1      0.46720    0.46720    0.53280   1.00
Zn1      0.53280    0.53280    0.53280   1.00
O2       0.52350    0.47650    0.41180   1.00
O2       0.52350    0.41180    0.47650   1.00
O2       0.58820    0.47650    0.47650   1.00
O2       0.47650    0.52350    0.41180   1.00
O2       0.41180    0.52350    0.47650   1.00
O2       0.47650    0.58820    0.47650   1.00
O2       0.47650    0.41180    0.52350   1.00
O2       0.41180    0.47650    0.52350   1.00
O2       0.47650    0.47650    0.58820   1.00
O2       0.58820    0.52350    0.52350   1.00
O2       0.52350    0.58820    0.52350   1.00
O2       0.52350    0.52350    0.58820   1.00
C1       0.50000    0.50000    0.39480   1.00
C1       0.50000    0.39480    0.50000   1.00
C1       0.60520    0.50000    0.50000   1.00
C1       0.39480    0.50000    0.50000   1.00
C1       0.50000    0.60520    0.50000   1.00
C1       0.50000    0.50000    0.60520   1.00
O1       1.00000    1.00000    0.50000   1.00
Zn1      1.03280    0.96720    0.46720   1.00
Zn1      0.96720    1.03280    0.46720   1.00
Zn1      0.96720    0.96720    0.53280   1.00
Zn1      1.03280    1.03280    0.53280   1.00
O2       1.02350    0.97650    0.41180   1.00
O2       1.02350    0.91180    0.47650   1.00
O2       1.08820    0.97650    0.47650   1.00
O2       0.97650    1.02350    0.41180   1.00
O2       0.91180    1.02350    0.47650   1.00
O2       0.97650    1.08820    0.47650   1.00
O2       0.97650    0.91180    0.52350   1.00
O2       0.91180    0.97650    0.52350   1.00
O2       0.97650    0.97650    0.58820   1.00
O2       1.08820    1.02350    0.52350   1.00
O2       1.02350    1.08820    0.52350   1.00
O2       1.02350    1.02350    0.58820   1.00
C1       1.00000    1.00000    0.39480   1.00
C1       1.00000    0.89480    0.50000   1.00
C1       1.10520    1.00000    0.50000   1.00
C1       0.89480    1.00000    0.50000   1.00
C1       1.00000    1.10520    0.50000   1.00
C1       1.00000    1.00000    0.60520   1.00
O1       1.00000    0.50000    1.00000   1.00
Zn1      1.03280    0.46720    0.96720   1.00
Zn1      0.96720    0.53280    0.96720   1.00
Zn1      0.96720    0.46720    1.03280   1.00
Zn1      1.03280    0.53280    1.03280   1.00
O2       1.02350    0.47650    0.91180   1.00
O2       1.02350    0.41180    0.97650   1.00
O2       1.08820    0.47650    0.97650   1.00
O2       0.97650    0.52350    0.91180   1.00
O2       0.91180    0.52350    0.97650   1.00
O2       0.97650    0.58820    0.97650   1.00
O2       0.97650    0.41180    1.02350   1.00
O2       0.91180    0.47650    1.02350   1.00
O2       0.97650    0.47650    1.08820   1.00
O2       1.08820    0.52350    1.02350   1.00
O2       1.02350    0.58820    1.02350   1.00
O2       1.02350    0.52350    1.08820   1.00
C1       1.00000    0.50000    0.89480   1.00
C1       1.00000    0.39480    1.00000   1.00
C1       1.10520    0.50000    1.00000   1.00
C1       0.89480    0.50000    1.00000   1.00
C1       1.00000    0.60520    1.00000   1.00
C1       1.00000    0.50000    1.10520   1.00
O1       0.50000    1.00000    1.00000   1.00
Zn1      0.53280    0.96720    0.96720   1.00
Zn1      0.46720    1.03280    0.96720   1.00
Zn1      0.46720    0.96720    1.03280   1.00
Zn1      0.53280    1.03280    1.03280   1.00
O2       0.52350    0.97650    0.91180   1.00
O2       0.52350    0.91180    0.97650   1.00
O2       0.58820    0.97650    0.97650   1.00
O2       0.47650    1.02350    0.91180   1.00
O2       0.41180    1.02350    0.97650   1.00
O2       0.47650    1.08820    0.97650   1.00
O2       0.47650    0.91180    1.02350   1.00
O2       0.41180    0.97650    1.02350   1.00
O2       0.47650    0.97650    1.08820   1.00
O2       0.58820    1.02350    1.02350   1.00
O2       0.52350    1.08820    1.02350   1.00
O2       0.52350    1.02350    1.08820   1.00
C1       0.50000    1.00000    0.89480   1.00
C1       0.50000    0.89480    1.00000   1.00
C1       0.60520    1.00000    1.00000   1.00
C1       0.39480    1.00000    1.00000   1.00
C1       0.50000    1.10520    1.00000   1.00
C1       0.50000    1.00000    1.10520   1.00
C4       0.74982    0.74993    0.97915   1.00
C4       0.75018    0.75007    1.02085   1.00
C3a      0.73264    0.71877    0.95746   1.00
C3       0.71688    0.76125    1.04232   1.00
C3       0.76644    0.78087    0.95768   1.00
C3a      0.78403    0.73912    1.04254   1.00
C2       0.74997    0.75007    0.89488   1.00
C2       0.74997    0.75008    1.10512   1.00
C3       0.73306    0.71930    0.91595   1.00
C3       0.71679    0.76112    1.08363   1.00
C3       0.76659    0.78084    0.91637   1.00
C3       0.78336    0.73922    1.08405   1.00
C5       0.71415    0.68416    0.97772   1.00
H1       0.69063    0.76976    1.02691   1.00
H1       0.72015    0.69546    0.89979   1.00
H1       0.69057    0.76968    1.09901   1.00
H1       0.77984    0.80503    0.90099   1.00
H1       0.80910    0.73068    1.10021   1.00
C5       0.82120    0.72655    1.02228   1.00
H1       0.77975    0.80505    0.97309   1.00
H2       0.83940    0.70901    1.04256   1.00
H2       0.81431    0.70708    0.99731   1.00
H2       0.71290    0.65892    0.95744   1.00
H2       0.73250    0.67469    1.00269   1.00
N1       0.84336    0.76039    1.00857   1.00
C6       0.86048    0.78752    1.03073   1.00
C6       0.85128    0.76945    0.97154   1.00
C6       0.87913    0.81454    1.00759   1.00
C6       0.87329    0.80305    0.96995   1.00
H3       0.85927    0.78797    1.06197   1.00
H3       0.84141    0.75285    0.94700   1.00
H3       0.89522    0.83979    1.01713   1.00
H3       0.88387    0.81757    0.94425   1.00
N1       0.67483    0.69366    0.99143   1.00
C6       0.66286    0.69484    1.02846   1.00
C6       0.64379    0.70171    0.96927   1.00
C6       0.62382    0.70426    1.03005   1.00
C6       0.61169    0.70864    0.99241   1.00
H3       0.68142    0.68949    1.05300   1.00
H3       0.64436    0.70287    0.93803   1.00
H3       0.60616    0.70760    1.05575   1.00
H3       0.58268    0.71602    0.98287   1.00
C4       0.74993    0.97915    0.74982   1.00
C4       0.75007    1.02085    0.75018   1.00
C3a      0.71877    0.95746    0.73264   1.00
C3       0.76125    1.04232    0.71688   1.00
C3       0.78087    0.95768    0.76644   1.00
C3a      0.73912    1.04254    0.78403   1.00
C2       0.75007    0.89488    0.74997   1.00
C2       0.75008    1.10512    0.74997   1.00
C3       0.71930    0.91595    0.73306   1.00
C3       0.76112    1.08363    0.71679   1.00
C3       0.78084    0.91637    0.76659   1.00
C3       0.73922    1.08405    0.78336   1.00
C5       0.68416    0.97772    0.71415   1.00
H1       0.76976    1.02691    0.69063   1.00
H1       0.69546    0.89979    0.72015   1.00
H1       0.76968    1.09901    0.69057   1.00
H1       0.80503    0.90099    0.77984   1.00
H1       0.73068    1.10021    0.80910   1.00
C5       0.72655    1.02228    0.82120   1.00
H1       0.80505    0.97309    0.77975   1.00
H2       0.70901    1.04256    0.83940   1.00
H2       0.70708    0.99731    0.81431   1.00
H2       0.65892    0.95744    0.71290   1.00
H2       0.67469    1.00269    0.73250   1.00
N1       0.76039    1.00857    0.84336   1.00
C6       0.78752    1.03073    0.86048   1.00
C6       0.76945    0.97154    0.85128   1.00
C6       0.81454    1.00759    0.87913   1.00
C6       0.80305    0.96995    0.87329   1.00
H3       0.78797    1.06197    0.85927   1.00
H3       0.75285    0.94700    0.84141   1.00
H3       0.83979    1.01713    0.89522   1.00
H3       0.81757    0.94425    0.88387   1.00
N1       0.69366    0.99143    0.67483   1.00
C6       0.69484    1.02846    0.66286   1.00
C6       0.70171    0.96927    0.64379   1.00
C6       0.70426    1.03005    0.62382   1.00
C6       0.70864    0.99241    0.61169   1.00
H3       0.68949    1.05300    0.68142   1.00
H3       0.70287    0.93803    0.64436   1.00
H3       0.70760    1.05575    0.60616   1.00
H3       0.71602    0.98287    0.58268   1.00
C4       0.52085    0.74982    0.75007   1.00
C4       0.47915    0.75018    0.74993   1.00
C3a      0.54254    0.73264    0.78123   1.00
C3       0.45768    0.71688    0.73875   1.00
C3       0.54232    0.76644    0.71913   1.00
C3a      0.45746    0.78403    0.76088   1.00
C2       0.60512    0.74997    0.74993   1.00
C2       0.39488    0.74997    0.74992   1.00
C3       0.58405    0.73306    0.78070   1.00
C3       0.41637    0.71679    0.73888   1.00
C3       0.58363    0.76659    0.71916   1.00
C3       0.41595    0.78336    0.76078   1.00
C5       0.52228    0.71415    0.81584   1.00
H1       0.47309    0.69063    0.73024   1.00
H1       0.60021    0.72015    0.80454   1.00
H1       0.40099    0.69057    0.73032   1.00
H1       0.59901    0.77984    0.69497   1.00
H1       0.39979    0.80910    0.76932   1.00
C5       0.47772    0.82120    0.77345   1.00
H1       0.52691    0.77975    0.69495   1.00
H2       0.45744    0.83940    0.79099   1.00
H2       0.50269    0.81431    0.79292   1.00
H2       0.54256    0.71290    0.84108   1.00
H2       0.49731    0.73250    0.82531   1.00
N1       0.49143    0.84336    0.73961   1.00
C6       0.46927    0.86048    0.71248   1.00
C6       0.52846    0.85128    0.73055   1.00
C6       0.49241    0.87913    0.68546   1.00
C6       0.53005    0.87329    0.69695   1.00
H3       0.43803    0.85927    0.71203   1.00
H3       0.55300    0.84141    0.74715   1.00
H3       0.48287    0.89522    0.66021   1.00
H3       0.55575    0.88387    0.68243   1.00
N1       0.50857    0.67483    0.80634   1.00
C6       0.47154    0.66286    0.80516   1.00
C6       0.53073    0.64379    0.79829   1.00
C6       0.46995    0.62382    0.79574   1.00
C6       0.50759    0.61169    0.79136   1.00
H3       0.44700    0.68142    0.81051   1.00
H3       0.56197    0.64436    0.79713   1.00
H3       0.44425    0.60616    0.79240   1.00
H3       0.51713    0.58268    0.78398   1.00
C4       0.97915    0.74982    0.74993   1.00
C4       1.02085    0.75018    0.75007   1.00
C3a      0.95746    0.73264    0.71877   1.00
C3       1.04232    0.71688    0.76125   1.00
C3       0.95768    0.76644    0.78087   1.00
C3a      1.04254    0.78403    0.73912   1.00
C2       0.89488    0.74997    0.75007   1.00
C2       1.10512    0.74997    0.75008   1.00
C3       0.91595    0.73306    0.71930   1.00
C3       1.08363    0.71679    0.76112   1.00
C3       0.91637    0.76659    0.78084   1.00
C3       1.08405    0.78336    0.73922   1.00
C5       0.97772    0.71415    0.68416   1.00
H1       1.02691    0.69063    0.76976   1.00
H1       0.89979    0.72015    0.69546   1.00
H1       1.09901    0.69057    0.76968   1.00
H1       0.90099    0.77984    0.80503   1.00
H1       1.10021    0.80910    0.73068   1.00
C5       1.02228    0.82120    0.72655   1.00
H1       0.97309    0.77975    0.80505   1.00
H2       1.04256    0.83940    0.70901   1.00
H2       0.99731    0.81431    0.70708   1.00
H2       0.95744    0.71290    0.65892   1.00
H2       1.00269    0.73250    0.67469   1.00
N1       1.00857    0.84336    0.76039   1.00
C6       1.03073    0.86048    0.78752   1.00
C6       0.97154    0.85128    0.76945   1.00
C6       1.00759    0.87913    0.81454   1.00
C6       0.96995    0.87329    0.80305   1.00
H3       1.06197    0.85927    0.78797   1.00
H3       0.94700    0.84141    0.75285   1.00
H3       1.01713    0.89522    0.83979   1.00
H3       0.94425    0.88387    0.81757   1.00
N1       0.99143    0.67483    0.69366   1.00
C6       1.02846    0.66286    0.69484   1.00
C6       0.96927    0.64379    0.70171   1.00
C6       1.03005    0.62382    0.70426   1.00
C6       0.99241    0.61169    0.70864   1.00
H3       1.05300    0.68142    0.68949   1.00
H3       0.93803    0.64436    0.70287   1.00
H3       1.05575    0.60616    0.70760   1.00
H3       0.98287    0.58268    0.71602   1.00
C4       0.75007    0.52085    0.74982   1.00
C4       0.74993    0.47915    0.75018   1.00
C3a      0.78123    0.54254    0.73264   1.00
C3       0.73875    0.45768    0.71688   1.00
C3       0.71913    0.54232    0.76644   1.00
C3a      0.76088    0.45746    0.78403   1.00
C2       0.74993    0.60512    0.74997   1.00
C2       0.74992    0.39488    0.74997   1.00
C3       0.78070    0.58405    0.73306   1.00
C3       0.73888    0.41637    0.71679   1.00
C3       0.71916    0.58363    0.76659   1.00
C3       0.76078    0.41595    0.78336   1.00
C5       0.81584    0.52228    0.71415   1.00
H1       0.73024    0.47309    0.69063   1.00
H1       0.80454    0.60021    0.72015   1.00
H1       0.73032    0.40099    0.69057   1.00
H1       0.69497    0.59901    0.77984   1.00
H1       0.76932    0.39979    0.80910   1.00
C5       0.77345    0.47772    0.82120   1.00
H1       0.69495    0.52691    0.77975   1.00
H2       0.79099    0.45744    0.83940   1.00
H2       0.79292    0.50269    0.81431   1.00
H2       0.84108    0.54256    0.71290   1.00
H2       0.82531    0.49731    0.73250   1.00
N1       0.73961    0.49143    0.84336   1.00
C6       0.71248    0.46927    0.86048   1.00
C6       0.73055    0.52846    0.85128   1.00
C6       0.68546    0.49241    0.87913   1.00
C6       0.69695    0.53005    0.87329   1.00
H3       0.71203    0.43803    0.85927   1.00
H3       0.74715    0.55300    0.84141   1.00
H3       0.66021    0.48287    0.89522   1.00
H3       0.68243    0.55575    0.88387   1.00
N1       0.80634    0.50857    0.67483   1.00
C6       0.80516    0.47154    0.66286   1.00
C6       0.79829    0.53073    0.64379   1.00
C6       0.79574    0.46995    0.62382   1.00
C6       0.79136    0.50759    0.61169   1.00
H3       0.81051    0.44700    0.68142   1.00
H3       0.79713    0.56197    0.64436   1.00
H3       0.79240    0.44425    0.60616   1.00
H3       0.78398    0.51713    0.58268   1.00
C4       0.74982    0.75007    0.52085   1.00
C4       0.75018    0.74993    0.47915   1.00
C3a      0.73264    0.78123    0.54254   1.00
C3       0.71688    0.73875    0.45768   1.00
C3       0.76644    0.71913    0.54232   1.00
C3a      0.78403    0.76088    0.45746   1.00
C2       0.74997    0.74993    0.60512   1.00
C2       0.74997    0.74992    0.39488   1.00
C3       0.73306    0.78070    0.58405   1.00
C3       0.71679    0.73888    0.41637   1.00
C3       0.76659    0.71916    0.58363   1.00
C3       0.78336    0.76078    0.41595   1.00
C5       0.71415    0.81584    0.52228   1.00
H1       0.69063    0.73024    0.47309   1.00
H1       0.72015    0.80454    0.60021   1.00
H1       0.69057    0.73032    0.40099   1.00
H1       0.77984    0.69497    0.59901   1.00
H1       0.80910    0.76932    0.39979   1.00
C5       0.82120    0.77345    0.47772   1.00
H1       0.77975    0.69495    0.52691   1.00
H2       0.83940    0.79099    0.45744   1.00
H2       0.81431    0.79292    0.50269   1.00
H2       0.71290    0.84108    0.54256   1.00
H2       0.73250    0.82531    0.49731   1.00
N1       0.84336    0.73961    0.49143   1.00
C6       0.86048    0.71248    0.46927   1.00
C6       0.85128    0.73055    0.52846   1.00
C6       0.87913    0.68546    0.49241   1.00
C6       0.87329    0.69695    0.53005   1.00
H3       0.85927    0.71203    0.43803   1.00
H3       0.84141    0.74715    0.55300   1.00
H3       0.89522    0.66021    0.48287   1.00
H3       0.88387    0.68243    0.55575   1.00
N1       0.67483    0.80634    0.50857   1.00
C6       0.66286    0.80516    0.47154   1.00
C6       0.64379    0.79829    0.53073   1.00
C6       0.62382    0.79574    0.46995   1.00
C6       0.61169    0.79136    0.50759   1.00
H3       0.68142    0.81051    0.44700   1.00
H3       0.64436    0.79713    0.56197   1.00
H3       0.60616    0.79240    0.44425   1.00
H3       0.58268    0.78398    0.51713   1.00
C4       0.24982    0.24993    0.97915   1.00
C4       0.25018    0.25007    1.02085   1.00
C3a      0.23264    0.21877    0.95746   1.00
C3       0.21688    0.26125    1.04232   1.00
C3       0.26644    0.28087    0.95768   1.00
C3a      0.28403    0.23912    1.04254   1.00
C2       0.24997    0.25007    0.89488   1.00
C2       0.24997    0.25008    1.10512   1.00
C3       0.23306    0.21930    0.91595   1.00
C3       0.21679    0.26112    1.08363   1.00
C3       0.26659    0.28084    0.91637   1.00
C3       0.28336    0.23922    1.08405   1.00
C5       0.21415    0.18416    0.97772   1.00
H1       0.19063    0.26976    1.02691   1.00
H1       0.22015    0.19546    0.89979   1.00
H1       0.19057    0.26968    1.09901   1.00
H1       0.27984    0.30503    0.90099   1.00
H1       0.30910    0.23068    1.10021   1.00
C5       0.32120    0.22655    1.02228   1.00
H1       0.27975    0.30505    0.97309   1.00
H2       0.33940    0.20901    1.04256   1.00
H2       0.31431    0.20708    0.99731   1.00
H2       0.21290    0.15892    0.95744   1.00
H2       0.23250    0.17469    1.00269   1.00
N1       0.34336    0.26039    1.00857   1.00
C6       0.36048    0.28752    1.03073   1.00
C6       0.35128    0.26945    0.97154   1.00
C6       0.37913    0.31454    1.00759   1.00
C6       0.37329    0.30305    0.96995   1.00
H3       0.35927    0.28797    1.06197   1.00
H3       0.34141    0.25285    0.94700   1.00
H3       0.39522    0.33979    1.01713   1.00
H3       0.38387    0.31757    0.94425   1.00
N1       0.17483    0.19366    0.99143   1.00
C6       0.16286    0.19484    1.02846   1.00
C6       0.14379    0.20171    0.96927   1.00
C6       0.12382    0.20426    1.03005   1.00
C6       0.11169    0.20864    0.99241   1.00
H3       0.18142    0.18949    1.05300   1.00
H3       0.14436    0.20287    0.93803   1.00
H3       0.10616    0.20760    1.05575   1.00
H3       0.08268    0.21602    0.98287   1.00
C4       0.24993    0.47915    0.74982   1.00
C4       0.25007    0.52085    0.75018   1.00
C3a      0.21877    0.45746    0.73264   1.00
C3       0.26125    0.54232    0.71688   1.00
C3       0.28087    0.45768    0.76644   1.00
C3a      0.23912    0.54254    0.78403   1.00
C2       0.25007    0.39488    0.74997   1.00
C2       0.25008    0.60512    0.74997   1.00
C3       0.21930    0.41595    0.73306   1.00
C3       0.26112    0.58363    0.71679   1.00
C3       0.28084    0.41637    0.76659   1.00
C3       0.23922    0.58405    0.78336   1.00
C5       0.18416    0.47772    0.71415   1.00
H1       0.26976    0.52691    0.69063   1.00
H1       0.19546    0.39979    0.72015   1.00
H1       0.26968    0.59901    0.69057   1.00
H1       0.30503    0.40099    0.77984   1.00
H1       0.23068    0.60021    0.80910   1.00
C5       0.22655    0.52228    0.82120   1.00
H1       0.30505    0.47309    0.77975   1.00
H2       0.20901    0.54256    0.83940   1.00
H2       0.20708    0.49731    0.81431   1.00
H2       0.15892    0.45744    0.71290   1.00
H2       0.17469    0.50269    0.73250   1.00
N1       0.26039    0.50857    0.84336   1.00
C6       0.28752    0.53073    0.86048   1.00
C6       0.26945    0.47154    0.85128   1.00
C6       0.31454    0.50759    0.87913   1.00
C6       0.30305    0.46995    0.87329   1.00
H3       0.28797    0.56197    0.85927   1.00
H3       0.25285    0.44700    0.84141   1.00
H3       0.33979    0.51713    0.89522   1.00
H3       0.31757    0.44425    0.88387   1.00
N1       0.19366    0.49143    0.67483   1.00
C6       0.19484    0.52846    0.66286   1.00
C6       0.20171    0.46927    0.64379   1.00
C6       0.20426    0.53005    0.62382   1.00
C6       0.20864    0.49241    0.61169   1.00
H3       0.18949    0.55300    0.68142   1.00
H3       0.20287    0.43803    0.64436   1.00
H3       0.20760    0.55575    0.60616   1.00
H3       0.21602    0.48287    0.58268   1.00
C4       0.02085    0.24982    0.75007   1.00
C4       -0.02085   0.25018    0.74993   1.00
C3a      0.04254    0.23264    0.78123   1.00
C3       -0.04232   0.21688    0.73875   1.00
C3       0.04232    0.26644    0.71913   1.00
C3a      -0.04254   0.28403    0.76088   1.00
C2       0.10512    0.24997    0.74993   1.00
C2       -0.10512   0.24997    0.74992   1.00
C3       0.08405    0.23306    0.78070   1.00
C3       -0.08363   0.21679    0.73888   1.00
C3       0.08363    0.26659    0.71916   1.00
C3       -0.08405   0.28336    0.76078   1.00
C5       0.02228    0.21415    0.81584   1.00
H1       -0.02691   0.19063    0.73024   1.00
H1       0.10021    0.22015    0.80454   1.00
H1       -0.09901   0.19057    0.73032   1.00
H1       0.09901    0.27984    0.69497   1.00
H1       -0.10021   0.30910    0.76932   1.00
C5       -0.02228   0.32120    0.77345   1.00
H1       0.02691    0.27975    0.69495   1.00
H2       -0.04256   0.33940    0.79099   1.00
H2       0.00269    0.31431    0.79292   1.00
H2       0.04256    0.21290    0.84108   1.00
H2       -0.00269   0.23250    0.82531   1.00
N1       -0.00857   0.34336    0.73961   1.00
C6       -0.03073   0.36048    0.71248   1.00
C6       0.02846    0.35128    0.73055   1.00
C6       -0.00759   0.37913    0.68546   1.00
C6       0.03005    0.37329    0.69695   1.00
H3       -0.06197   0.35927    0.71203   1.00
H3       0.05300    0.34141    0.74715   1.00
H3       -0.01713   0.39522    0.66021   1.00
H3       0.05575    0.38387    0.68243   1.00
N1       0.00857    0.17483    0.80634   1.00
C6       -0.02846   0.16286    0.80516   1.00
C6       0.03073    0.14379    0.79829   1.00
C6       -0.03005   0.12382    0.79574   1.00
C6       0.00759    0.11169    0.79136   1.00
H3       -0.05300   0.18142    0.81051   1.00
H3       0.06197    0.14436    0.79713   1.00
H3       -0.05575   0.10616    0.79240   1.00
H3       0.01713    0.08268    0.78398   1.00
C4       0.47915    0.24982    0.74993   1.00
C4       0.52085    0.25018    0.75007   1.00
C3a      0.45746    0.23264    0.71877   1.00
C3       0.54232    0.21688    0.76125   1.00
C3       0.45768    0.26644    0.78087   1.00
C3a      0.54254    0.28403    0.73912   1.00
C2       0.39488    0.24997    0.75007   1.00
C2       0.60512    0.24997    0.75008   1.00
C3       0.41595    0.23306    0.71930   1.00
C3       0.58363    0.21679    0.76112   1.00
C3       0.41637    0.26659    0.78084   1.00
C3       0.58405    0.28336    0.73922   1.00
C5       0.47772    0.21415    0.68416   1.00
H1       0.52691    0.19063    0.76976   1.00
H1       0.39979    0.22015    0.69546   1.00
H1       0.59901    0.19057    0.76968   1.00
H1       0.40099    0.27984    0.80503   1.00
H1       0.60021    0.30910    0.73068   1.00
C5       0.52228    0.32120    0.72655   1.00
H1       0.47309    0.27975    0.80505   1.00
H2       0.54256    0.33940    0.70901   1.00
H2       0.49731    0.31431    0.70708   1.00
H2       0.45744    0.21290    0.65892   1.00
H2       0.50269    0.23250    0.67469   1.00
N1       0.50857    0.34336    0.76039   1.00
C6       0.53073    0.36048    0.78752   1.00
C6       0.47154    0.35128    0.76945   1.00
C6       0.50759    0.37913    0.81454   1.00
C6       0.46995    0.37329    0.80305   1.00
H3       0.56197    0.35927    0.78797   1.00
H3       0.44700    0.34141    0.75285   1.00
H3       0.51713    0.39522    0.83979   1.00
H3       0.44425    0.38387    0.81757   1.00
N1       0.49143    0.17483    0.69366   1.00
C6       0.52846    0.16286    0.69484   1.00
C6       0.46927    0.14379    0.70171   1.00
C6       0.53005    0.12382    0.70426   1.00
C6       0.49241    0.11169    0.70864   1.00
H3       0.55300    0.18142    0.68949   1.00
H3       0.43803    0.14436    0.70287   1.00
H3       0.55575    0.10616    0.70760   1.00
H3       0.48287    0.08268    0.71602   1.00
C4       0.25007    0.02085    0.74982   1.00
C4       0.24993    -0.02085   0.75018   1.00
C3a      0.28123    0.04254    0.73264   1.00
C3       0.23875    -0.04232   0.71688   1.00
C3       0.21913    0.04232    0.76644   1.00
C3a      0.26088    -0.04254   0.78403   1.00
C2       0.24993    0.10512    0.74997   1.00
C2       0.24992    -0.10512   0.74997   1.00
C3       0.28070    0.08405    0.73306   1.00
C3       0.23888    -0.08363   0.71679   1.00
C3       0.21916    0.08363    0.76659   1.00
C3       0.26078    -0.08405   0.78336   1.00
C5       0.31584    0.02228    0.71415   1.00
H1       0.23024    -0.02691   0.69063   1.00
H1       0.30454    0.10021    0.72015   1.00
H1       0.23032    -0.09901   0.69057   1.00
H1       0.19497    0.09901    0.77984   1.00
H1       0.26932    -0.10021   0.80910   1.00
C5       0.27345    -0.02228   0.82120   1.00
H1       0.19495    0.02691    0.77975   1.00
H2       0.29099    -0.04256   0.83940   1.00
H2       0.29292    0.00269    0.81431   1.00
H2       0.34108    0.04256    0.71290   1.00
H2       0.32531    -0.00269   0.73250   1.00
N1       0.23961    -0.00857   0.84336   1.00
C6       0.21248    -0.03073   0.86048   1.00
C6       0.23055    0.02846    0.85128   1.00
C6       0.18546    -0.00759   0.87913   1.00
C6       0.19695    0.03005    0.87329   1.00
H3       0.21203    -0.06197   0.85927   1.00
H3       0.24715    0.05300    0.84141   1.00
H3       0.16021    -0.01713   0.89522   1.00
H3       0.18243    0.05575    0.88387   1.00
N1       0.30634    0.00857    0.67483   1.00
C6       0.30516    -0.02846   0.66286   1.00
C6       0.29829    0.03073    0.64379   1.00
C6       0.29574    -0.03005   0.62382   1.00
C6       0.29136    0.00759    0.61169   1.00
H3       0.31051    -0.05300   0.68142   1.00
H3       0.29713    0.06197    0.64436   1.00
H3       0.29240    -0.05575   0.60616   1.00
H3       0.28398    0.01713    0.58268   1.00
C4       0.24982    0.25007    0.52085   1.00
C4       0.25018    0.24993    0.47915   1.00
C3a      0.23264    0.28123    0.54254   1.00
C3       0.21688    0.23875    0.45768   1.00
C3       0.26644    0.21913    0.54232   1.00
C3a      0.28403    0.26088    0.45746   1.00
C2       0.24997    0.24993    0.60512   1.00
C2       0.24997    0.24992    0.39488   1.00
C3       0.23306    0.28070    0.58405   1.00
C3       0.21679    0.23888    0.41637   1.00
C3       0.26659    0.21916    0.58363   1.00
C3       0.28336    0.26078    0.41595   1.00
C5       0.21415    0.31584    0.52228   1.00
H1       0.19063    0.23024    0.47309   1.00
H1       0.22015    0.30454    0.60021   1.00
H1       0.19057    0.23032    0.40099   1.00
H1       0.27984    0.19497    0.59901   1.00
H1       0.30910    0.26932    0.39979   1.00
C5       0.32120    0.27345    0.47772   1.00
H1       0.27975    0.19495    0.52691   1.00
H2       0.33940    0.29099    0.45744   1.00
H2       0.31431    0.29292    0.50269   1.00
H2       0.21290    0.34108    0.54256   1.00
H2       0.23250    0.32531    0.49731   1.00
N1       0.34336    0.23961    0.49143   1.00
C6       0.36048    0.21248    0.46927   1.00
C6       0.35128    0.23055    0.52846   1.00
C6       0.37913    0.18546    0.49241   1.00
C6       0.37329    0.19695    0.53005   1.00
H3       0.35927    0.21203    0.43803   1.00
H3       0.34141    0.24715    0.55300   1.00
H3       0.39522    0.16021    0.48287   1.00
H3       0.38387    0.18243    0.55575   1.00
N1       0.17483    0.30634    0.50857   1.00
C6       0.16286    0.30516    0.47154   1.00
C6       0.14379    0.29829    0.53073   1.00
C6       0.12382    0.29574    0.46995   1.00
C6       0.11169    0.29136    0.50759   1.00
H3       0.18142    0.31051    0.44700   1.00
H3       0.14436    0.29713    0.56197   1.00
H3       0.10616    0.29240    0.44425   1.00
H3       0.08268    0.28398    0.51713   1.00
C4       0.24982    0.74993    0.47915   1.00
C4       0.25018    0.75007    0.52085   1.00
C3a      0.23264    0.71877    0.45746   1.00
C3       0.21688    0.76125    0.54232   1.00
C3       0.26644    0.78087    0.45768   1.00
C3a      0.28403    0.73912    0.54254   1.00
C2       0.24997    0.75007    0.39488   1.00
C2       0.24997    0.75008    0.60512   1.00
C3       0.23306    0.71930    0.41595   1.00
C3       0.21679    0.76112    0.58363   1.00
C3       0.26659    0.78084    0.41637   1.00
C3       0.28336    0.73922    0.58405   1.00
C5       0.21415    0.68416    0.47772   1.00
H1       0.19063    0.76976    0.52691   1.00
H1       0.22015    0.69546    0.39979   1.00
H1       0.19057    0.76968    0.59901   1.00
H1       0.27984    0.80503    0.40099   1.00
H1       0.30910    0.73068    0.60021   1.00
C5       0.32120    0.72655    0.52228   1.00
H1       0.27975    0.80505    0.47309   1.00
H2       0.33940    0.70901    0.54256   1.00
H2       0.31431    0.70708    0.49731   1.00
H2       0.21290    0.65892    0.45744   1.00
H2       0.23250    0.67469    0.50269   1.00
N1       0.34336    0.76039    0.50857   1.00
C6       0.36048    0.78752    0.53073   1.00
C6       0.35128    0.76945    0.47154   1.00
C6       0.37913    0.81454    0.50759   1.00
C6       0.37329    0.80305    0.46995   1.00
H3       0.35927    0.78797    0.56197   1.00
H3       0.34141    0.75285    0.44700   1.00
H3       0.39522    0.83979    0.51713   1.00
H3       0.38387    0.81757    0.44425   1.00
N1       0.17483    0.69366    0.49143   1.00
C6       0.16286    0.69484    0.52846   1.00
C6       0.14379    0.70171    0.46927   1.00
C6       0.12382    0.70426    0.53005   1.00
C6       0.11169    0.70864    0.49241   1.00
H3       0.18142    0.68949    0.55300   1.00
H3       0.14436    0.70287    0.43803   1.00
H3       0.10616    0.70760    0.55575   1.00
H3       0.08268    0.71602    0.48287   1.00
C4       0.24993    0.97915    0.24982   1.00
C4       0.25007    1.02085    0.25018   1.00
C3a      0.21877    0.95746    0.23264   1.00
C3       0.26125    1.04232    0.21688   1.00
C3       0.28087    0.95768    0.26644   1.00
C3a      0.23912    1.04254    0.28403   1.00
C2       0.25007    0.89488    0.24997   1.00
C2       0.25008    1.10512    0.24997   1.00
C3       0.21930    0.91595    0.23306   1.00
C3       0.26112    1.08363    0.21679   1.00
C3       0.28084    0.91637    0.26659   1.00
C3       0.23922    1.08405    0.28336   1.00
C5       0.18416    0.97772    0.21415   1.00
H1       0.26976    1.02691    0.19063   1.00
H1       0.19546    0.89979    0.22015   1.00
H1       0.26968    1.09901    0.19057   1.00
H1       0.30503    0.90099    0.27984   1.00
H1       0.23068    1.10021    0.30910   1.00
C5       0.22655    1.02228    0.32120   1.00
H1       0.30505    0.97309    0.27975   1.00
H2       0.20901    1.04256    0.33940   1.00
H2       0.20708    0.99731    0.31431   1.00
H2       0.15892    0.95744    0.21290   1.00
H2       0.17469    1.00269    0.23250   1.00
N1       0.26039    1.00857    0.34336   1.00
C6       0.28752    1.03073    0.36048   1.00
C6       0.26945    0.97154    0.35128   1.00
C6       0.31454    1.00759    0.37913   1.00
C6       0.30305    0.96995    0.37329   1.00
H3       0.28797    1.06197    0.35927   1.00
H3       0.25285    0.94700    0.34141   1.00
H3       0.33979    1.01713    0.39522   1.00
H3       0.31757    0.94425    0.38387   1.00
N1       0.19366    0.99143    0.17483   1.00
C6       0.19484    1.02846    0.16286   1.00
C6       0.20171    0.96927    0.14379   1.00
C6       0.20426    1.03005    0.12382   1.00
C6       0.20864    0.99241    0.11169   1.00
H3       0.18949    1.05300    0.18142   1.00
H3       0.20287    0.93803    0.14436   1.00
H3       0.20760    1.05575    0.10616   1.00
H3       0.21602    0.98287    0.08268   1.00
C4       0.02085    0.74982    0.25007   1.00
C4       -0.02085   0.75018    0.24993   1.00
C3a      0.04254    0.73264    0.28123   1.00
C3       -0.04232   0.71688    0.23875   1.00
C3       0.04232    0.76644    0.21913   1.00
C3a      -0.04254   0.78403    0.26088   1.00
C2       0.10512    0.74997    0.24993   1.00
C2       -0.10512   0.74997    0.24992   1.00
C3       0.08405    0.73306    0.28070   1.00
C3       -0.08363   0.71679    0.23888   1.00
C3       0.08363    0.76659    0.21916   1.00
C3       -0.08405   0.78336    0.26078   1.00
C5       0.02228    0.71415    0.31584   1.00
H1       -0.02691   0.69063    0.23024   1.00
H1       0.10021    0.72015    0.30454   1.00
H1       -0.09901   0.69057    0.23032   1.00
H1       0.09901    0.77984    0.19497   1.00
H1       -0.10021   0.80910    0.26932   1.00
C5       -0.02228   0.82120    0.27345   1.00
H1       0.02691    0.77975    0.19495   1.00
H2       -0.04256   0.83940    0.29099   1.00
H2       0.00269    0.81431    0.29292   1.00
H2       0.04256    0.71290    0.34108   1.00
H2       -0.00269   0.73250    0.32531   1.00
N1       -0.00857   0.84336    0.23961   1.00
C6       -0.03073   0.86048    0.21248   1.00
C6       0.02846    0.85128    0.23055   1.00
C6       -0.00759   0.87913    0.18546   1.00
C6       0.03005    0.87329    0.19695   1.00
H3       -0.06197   0.85927    0.21203   1.00
H3       0.05300    0.84141    0.24715   1.00
H3       -0.01713   0.89522    0.16021   1.00
H3       0.05575    0.88387    0.18243   1.00
N1       0.00857    0.67483    0.30634   1.00
C6       -0.02846   0.66286    0.30516   1.00
C6       0.03073    0.64379    0.29829   1.00
C6       -0.03005   0.62382    0.29574   1.00
C6       0.00759    0.61169    0.29136   1.00
H3       -0.05300   0.68142    0.31051   1.00
H3       0.06197    0.64436    0.29713   1.00
H3       -0.05575   0.60616    0.29240   1.00
H3       0.01713    0.58268    0.28398   1.00
C4       0.47915    0.74982    0.24993   1.00
C4       0.52085    0.75018    0.25007   1.00
C3a      0.45746    0.73264    0.21877   1.00
C3       0.54232    0.71688    0.26125   1.00
C3       0.45768    0.76644    0.28087   1.00
C3a      0.54254    0.78403    0.23912   1.00
C2       0.39488    0.74997    0.25007   1.00
C2       0.60512    0.74997    0.25008   1.00
C3       0.41595    0.73306    0.21930   1.00
C3       0.58363    0.71679    0.26112   1.00
C3       0.41637    0.76659    0.28084   1.00
C3       0.58405    0.78336    0.23922   1.00
C5       0.47772    0.71415    0.18416   1.00
H1       0.52691    0.69063    0.26976   1.00
H1       0.39979    0.72015    0.19546   1.00
H1       0.59901    0.69057    0.26968   1.00
H1       0.40099    0.77984    0.30503   1.00
H1       0.60021    0.80910    0.23068   1.00
C5       0.52228    0.82120    0.22655   1.00
H1       0.47309    0.77975    0.30505   1.00
H2       0.54256    0.83940    0.20901   1.00
H2       0.49731    0.81431    0.20708   1.00
H2       0.45744    0.71290    0.15892   1.00
H2       0.50269    0.73250    0.17469   1.00
N1       0.50857    0.84336    0.26039   1.00
C6       0.53073    0.86048    0.28752   1.00
C6       0.47154    0.85128    0.26945   1.00
C6       0.50759    0.87913    0.31454   1.00
C6       0.46995    0.87329    0.30305   1.00
H3       0.56197    0.85927    0.28797   1.00
H3       0.44700    0.84141    0.25285   1.00
H3       0.51713    0.89522    0.33979   1.00
H3       0.44425    0.88387    0.31757   1.00
N1       0.49143    0.67483    0.19366   1.00
C6       0.52846    0.66286    0.19484   1.00
C6       0.46927    0.64379    0.20171   1.00
C6       0.53005    0.62382    0.20426   1.00
C6       0.49241    0.61169    0.20864   1.00
H3       0.55300    0.68142    0.18949   1.00
H3       0.43803    0.64436    0.20287   1.00
H3       0.55575    0.60616    0.20760   1.00
H3       0.48287    0.58268    0.21602   1.00
C4       0.25007    0.52085    0.24982   1.00
C4       0.24993    0.47915    0.25018   1.00
C3a      0.28123    0.54254    0.23264   1.00
C3       0.23875    0.45768    0.21688   1.00
C3       0.21913    0.54232    0.26644   1.00
C3a      0.26088    0.45746    0.28403   1.00
C2       0.24993    0.60512    0.24997   1.00
C2       0.24992    0.39488    0.24997   1.00
C3       0.28070    0.58405    0.23306   1.00
C3       0.23888    0.41637    0.21679   1.00
C3       0.21916    0.58363    0.26659   1.00
C3       0.26078    0.41595    0.28336   1.00
C5       0.31584    0.52228    0.21415   1.00
H1       0.23024    0.47309    0.19063   1.00
H1       0.30454    0.60021    0.22015   1.00
H1       0.23032    0.40099    0.19057   1.00
H1       0.19497    0.59901    0.27984   1.00
H1       0.26932    0.39979    0.30910   1.00
C5       0.27345    0.47772    0.32120   1.00
H1       0.19495    0.52691    0.27975   1.00
H2       0.29099    0.45744    0.33940   1.00
H2       0.29292    0.50269    0.31431   1.00
H2       0.34108    0.54256    0.21290   1.00
H2       0.32531    0.49731    0.23250   1.00
N1       0.23961    0.49143    0.34336   1.00
C6       0.21248    0.46927    0.36048   1.00
C6       0.23055    0.52846    0.35128   1.00
C6       0.18546    0.49241    0.37913   1.00
C6       0.19695    0.53005    0.37329   1.00
H3       0.21203    0.43803    0.35927   1.00
H3       0.24715    0.55300    0.34141   1.00
H3       0.16021    0.48287    0.39522   1.00
H3       0.18243    0.55575    0.38387   1.00
N1       0.30634    0.50857    0.17483   1.00
C6       0.30516    0.47154    0.16286   1.00
C6       0.29829    0.53073    0.14379   1.00
C6       0.29574    0.46995    0.12382   1.00
C6       0.29136    0.50759    0.11169   1.00
H3       0.31051    0.44700    0.18142   1.00
H3       0.29713    0.56197    0.14436   1.00
H3       0.29240    0.44425    0.10616   1.00
H3       0.28398    0.51713    0.08268   1.00
C4       0.24982    0.75007    0.02085   1.00
C4       0.25018    0.74993    -0.02085   1.00
C3a      0.23264    0.78123    0.04254   1.00
C3       0.21688    0.73875    -0.04232   1.00
C3       0.26644    0.71913    0.04232   1.00
C3a      0.28403    0.76088    -0.04254   1.00
C2       0.24997    0.74993    0.10512   1.00
C2       0.24997    0.74992    -0.10512   1.00
C3       0.23306    0.78070    0.08405   1.00
C3       0.21679    0.73888    -0.08363   1.00
C3       0.26659    0.71916    0.08363   1.00
C3       0.28336    0.76078    -0.08405   1.00
C5       0.21415    0.81584    0.02228   1.00
H1       0.19063    0.73024    -0.02691   1.00
H1       0.22015    0.80454    0.10021   1.00
H1       0.19057    0.73032    -0.09901   1.00
H1       0.27984    0.69497    0.09901   1.00
H1       0.30910    0.76932    -0.10021   1.00
C5       0.32120    0.77345    -0.02228   1.00
H1       0.27975    0.69495    0.02691   1.00
H2       0.33940    0.79099    -0.04256   1.00
H2       0.31431    0.79292    0.00269   1.00
H2       0.21290    0.84108    0.04256   1.00
H2       0.23250    0.82531    -0.00269   1.00
N1       0.34336    0.73961    -0.00857   1.00
C6       0.36048    0.71248    -0.03073   1.00
C6       0.35128    0.73055    0.02846   1.00
C6       0.37913    0.68546    -0.00759   1.00
C6       0.37329    0.69695    0.03005   1.00
H3       0.35927    0.71203    -0.06197   1.00
H3       0.34141    0.74715    0.05300   1.00
H3       0.39522    0.66021    -0.01713   1.00
H3       0.38387    0.68243    0.05575   1.00
N1       0.17483    0.80634    0.00857   1.00
C6       0.16286    0.80516    -0.02846   1.00
C6       0.14379    0.79829    0.03073   1.00
C6       0.12382    0.79574    -0.03005   1.00
C6       0.11169    0.79136    0.00759   1.00
H3       0.18142    0.81051    -0.05300   1.00
H3       0.14436    0.79713    0.06197   1.00
H3       0.10616    0.79240    -0.05575   1.00
H3       0.08268    0.78398    0.01713   1.00
C4       0.74982    0.24993    0.47915   1.00
C4       0.75018    0.25007    0.52085   1.00
C3a      0.73264    0.21877    0.45746   1.00
C3       0.71688    0.26125    0.54232   1.00
C3       0.76644    0.28087    0.45768   1.00
C3a      0.78403    0.23912    0.54254   1.00
C2       0.74997    0.25007    0.39488   1.00
C2       0.74997    0.25008    0.60512   1.00
C3       0.73306    0.21930    0.41595   1.00
C3       0.71679    0.26112    0.58363   1.00
C3       0.76659    0.28084    0.41637   1.00
C3       0.78336    0.23922    0.58405   1.00
C5       0.71415    0.18416    0.47772   1.00
H1       0.69063    0.26976    0.52691   1.00
H1       0.72015    0.19546    0.39979   1.00
H1       0.69057    0.26968    0.59901   1.00
H1       0.77984    0.30503    0.40099   1.00
H1       0.80910    0.23068    0.60021   1.00
C5       0.82120    0.22655    0.52228   1.00
H1       0.77975    0.30505    0.47309   1.00
H2       0.83940    0.20901    0.54256   1.00
H2       0.81431    0.20708    0.49731   1.00
H2       0.71290    0.15892    0.45744   1.00
H2       0.73250    0.17469    0.50269   1.00
N1       0.84336    0.26039    0.50857   1.00
C6       0.86048    0.28752    0.53073   1.00
C6       0.85128    0.26945    0.47154   1.00
C6       0.87913    0.31454    0.50759   1.00
C6       0.87329    0.30305    0.46995   1.00
H3       0.85927    0.28797    0.56197   1.00
H3       0.84141    0.25285    0.44700   1.00
H3       0.89522    0.33979    0.51713   1.00
H3       0.88387    0.31757    0.44425   1.00
N1       0.67483    0.19366    0.49143   1.00
C6       0.66286    0.19484    0.52846   1.00
C6       0.64379    0.20171    0.46927   1.00
C6       0.62382    0.20426    0.53005   1.00
C6       0.61169    0.20864    0.49241   1.00
H3       0.68142    0.18949    0.55300   1.00
H3       0.64436    0.20287    0.43803   1.00
H3       0.60616    0.20760    0.55575   1.00
H3       0.58268    0.21602    0.48287   1.00
C4       0.74993    0.47915    0.24982   1.00
C4       0.75007    0.52085    0.25018   1.00
C3a      0.71877    0.45746    0.23264   1.00
C3       0.76125    0.54232    0.21688   1.00
C3       0.78087    0.45768    0.26644   1.00
C3a      0.73912    0.54254    0.28403   1.00
C2       0.75007    0.39488    0.24997   1.00
C2       0.75008    0.60512    0.24997   1.00
C3       0.71930    0.41595    0.23306   1.00
C3       0.76112    0.58363    0.21679   1.00
C3       0.78084    0.41637    0.26659   1.00
C3       0.73922    0.58405    0.28336   1.00
C5       0.68416    0.47772    0.21415   1.00
H1       0.76976    0.52691    0.19063   1.00
H1       0.69546    0.39979    0.22015   1.00
H1       0.76968    0.59901    0.19057   1.00
H1       0.80503    0.40099    0.27984   1.00
H1       0.73068    0.60021    0.30910   1.00
C5       0.72655    0.52228    0.32120   1.00
H1       0.80505    0.47309    0.27975   1.00
H2       0.70901    0.54256    0.33940   1.00
H2       0.70708    0.49731    0.31431   1.00
H2       0.65892    0.45744    0.21290   1.00
H2       0.67469    0.50269    0.23250   1.00
N1       0.76039    0.50857    0.34336   1.00
C6       0.78752    0.53073    0.36048   1.00
C6       0.76945    0.47154    0.35128   1.00
C6       0.81454    0.50759    0.37913   1.00
C6       0.80305    0.46995    0.37329   1.00
H3       0.78797    0.56197    0.35927   1.00
H3       0.75285    0.44700    0.34141   1.00
H3       0.83979    0.51713    0.39522   1.00
H3       0.81757    0.44425    0.38387   1.00
N1       0.69366    0.49143    0.17483   1.00
C6       0.69484    0.52846    0.16286   1.00
C6       0.70171    0.46927    0.14379   1.00
C6       0.70426    0.53005    0.12382   1.00
C6       0.70864    0.49241    0.11169   1.00
H3       0.68949    0.55300    0.18142   1.00
H3       0.70287    0.43803    0.14436   1.00
H3       0.70760    0.55575    0.10616   1.00
H3       0.71602    0.48287    0.08268   1.00
C4       0.52085    0.24982    0.25007   1.00
C4       0.47915    0.25018    0.24993   1.00
C3a      0.54254    0.23264    0.28123   1.00
C3       0.45768    0.21688    0.23875   1.00
C3       0.54232    0.26644    0.21913   1.00
C3a      0.45746    0.28403    0.26088   1.00
C2       0.60512    0.24997    0.24993   1.00
C2       0.39488    0.24997    0.24992   1.00
C3       0.58405    0.23306    0.28070   1.00
C3       0.41637    0.21679    0.23888   1.00
C3       0.58363    0.26659    0.21916   1.00
C3       0.41595    0.28336    0.26078   1.00
C5       0.52228    0.21415    0.31584   1.00
H1       0.47309    0.19063    0.23024   1.00
H1       0.60021    0.22015    0.30454   1.00
H1       0.40099    0.19057    0.23032   1.00
H1       0.59901    0.27984    0.19497   1.00
H1       0.39979    0.30910    0.26932   1.00
C5       0.47772    0.32120    0.27345   1.00
H1       0.52691    0.27975    0.19495   1.00
H2       0.45744    0.33940    0.29099   1.00
H2       0.50269    0.31431    0.29292   1.00
H2       0.54256    0.21290    0.34108   1.00
H2       0.49731    0.23250    0.32531   1.00
N1       0.49143    0.34336    0.23961   1.00
C6       0.46927    0.36048    0.21248   1.00
C6       0.52846    0.35128    0.23055   1.00
C6       0.49241    0.37913    0.18546   1.00
C6       0.53005    0.37329    0.19695   1.00
H3       0.43803    0.35927    0.21203   1.00
H3       0.55300    0.34141    0.24715   1.00
H3       0.48287    0.39522    0.16021   1.00
H3       0.55575    0.38387    0.18243   1.00
N1       0.50857    0.17483    0.30634   1.00
C6       0.47154    0.16286    0.30516   1.00
C6       0.53073    0.14379    0.29829   1.00
C6       0.46995    0.12382    0.29574   1.00
C6       0.50759    0.11169    0.29136   1.00
H3       0.44700    0.18142    0.31051   1.00
H3       0.56197    0.14436    0.29713   1.00
H3       0.44425    0.10616    0.29240   1.00
H3       0.51713    0.08268    0.28398   1.00
C4       0.97915    0.24982    0.24993   1.00
C4       1.02085    0.25018    0.25007   1.00
C3a      0.95746    0.23264    0.21877   1.00
C3       1.04232    0.21688    0.26125   1.00
C3       0.95768    0.26644    0.28087   1.00
C3a      1.04254    0.28403    0.23912   1.00
C2       0.89488    0.24997    0.25007   1.00
C2       1.10512    0.24997    0.25008   1.00
C3       0.91595    0.23306    0.21930   1.00
C3       1.08363    0.21679    0.26112   1.00
C3       0.91637    0.26659    0.28084   1.00
C3       1.08405    0.28336    0.23922   1.00
C5       0.97772    0.21415    0.18416   1.00
H1       1.02691    0.19063    0.26976   1.00
H1       0.89979    0.22015    0.19546   1.00
H1       1.09901    0.19057    0.26968   1.00
H1       0.90099    0.27984    0.30503   1.00
H1       1.10021    0.30910    0.23068   1.00
C5       1.02228    0.32120    0.22655   1.00
H1       0.97309    0.27975    0.30505   1.00
H2       1.04256    0.33940    0.20901   1.00
H2       0.99731    0.31431    0.20708   1.00
H2       0.95744    0.21290    0.15892   1.00
H2       1.00269    0.23250    0.17469   1.00
N1       1.00857    0.34336    0.26039   1.00
C6       1.03073    0.36048    0.28752   1.00
C6       0.97154    0.35128    0.26945   1.00
C6       1.00759    0.37913    0.31454   1.00
C6       0.96995    0.37329    0.30305   1.00
H3       1.06197    0.35927    0.28797   1.00
H3       0.94700    0.34141    0.25285   1.00
H3       1.01713    0.39522    0.33979   1.00
H3       0.94425    0.38387    0.31757   1.00
N1       0.99143    0.17483    0.19366   1.00
C6       1.02846    0.16286    0.19484   1.00
C6       0.96927    0.14379    0.20171   1.00
C6       1.03005    0.12382    0.20426   1.00
C6       0.99241    0.11169    0.20864   1.00
H3       1.05300    0.18142    0.18949   1.00
H3       0.93803    0.14436    0.20287   1.00
H3       1.05575    0.10616    0.20760   1.00
H3       0.98287    0.08268    0.21602   1.00
C4       0.75007    0.02085    0.24982   1.00
C4       0.74993    -0.02085   0.25018   1.00
C3a      0.78123    0.04254    0.23264   1.00
C3       0.73875    -0.04232   0.21688   1.00
C3       0.71913    0.04232    0.26644   1.00
C3a      0.76088    -0.04254   0.28403   1.00
C2       0.74993    0.10512    0.24997   1.00
C2       0.74992    -0.10512   0.24997   1.00
C3       0.78070    0.08405    0.23306   1.00
C3       0.73888    -0.08363   0.21679   1.00
C3       0.71916    0.08363    0.26659   1.00
C3       0.76078    -0.08405   0.28336   1.00
C5       0.81584    0.02228    0.21415   1.00
H1       0.73024    -0.02691   0.19063   1.00
H1       0.80454    0.10021    0.22015   1.00
H1       0.73032    -0.09901   0.19057   1.00
H1       0.69497    0.09901    0.27984   1.00
H1       0.76932    -0.10021   0.30910   1.00
C5       0.77345    -0.02228   0.32120   1.00
H1       0.69495    0.02691    0.27975   1.00
H2       0.79099    -0.04256   0.33940   1.00
H2       0.79292    0.00269    0.31431   1.00
H2       0.84108    0.04256    0.21290   1.00
H2       0.82531    -0.00269   0.23250   1.00
N1       0.73961    -0.00857   0.34336   1.00
C6       0.71248    -0.03073   0.36048   1.00
C6       0.73055    0.02846    0.35128   1.00
C6       0.68546    -0.00759   0.37913   1.00
C6       0.69695    0.03005    0.37329   1.00
H3       0.71203    -0.06197   0.35927   1.00
H3       0.74715    0.05300    0.34141   1.00
H3       0.66021    -0.01713   0.39522   1.00
H3       0.68243    0.05575    0.38387   1.00
N1       0.80634    0.00857    0.17483   1.00
C6       0.80516    -0.02846   0.16286   1.00
C6       0.79829    0.03073    0.14379   1.00
C6       0.79574    -0.03005   0.12382   1.00
C6       0.79136    0.00759    0.11169   1.00
H3       0.81051    -0.05300   0.18142   1.00
H3       0.79713    0.06197    0.14436   1.00
H3       0.79240    -0.05575   0.10616   1.00
H3       0.78398    0.01713    0.08268   1.00
C4       0.74982    0.25007    0.02085   1.00
C4       0.75018    0.24993    -0.02085   1.00
C3a      0.73264    0.28123    0.04254   1.00
C3       0.71688    0.23875    -0.04232   1.00
C3       0.76644    0.21913    0.04232   1.00
C3a      0.78403    0.26088    -0.04254   1.00
C2       0.74997    0.24993    0.10512   1.00
C2       0.74997    0.24992    -0.10512   1.00
C3       0.73306    0.28070    0.08405   1.00
C3       0.71679    0.23888    -0.08363   1.00
C3       0.76659    0.21916    0.08363   1.00
C3       0.78336    0.26078    -0.08405   1.00
C5       0.71415    0.31584    0.02228   1.00
H1       0.69063    0.23024    -0.02691   1.00
H1       0.72015    0.30454    0.10021   1.00
H1       0.69057    0.23032    -0.09901   1.00
H1       0.77984    0.19497    0.09901   1.00
H1       0.80910    0.26932    -0.10021   1.00
C5       0.82120    0.27345    -0.02228   1.00
H1       0.77975    0.19495    0.02691   1.00
H2       0.83940    0.29099    -0.04256   1.00
H2       0.81431    0.29292    0.00269   1.00
H2       0.71290    0.34108    0.04256   1.00
H2       0.73250    0.32531    -0.00269   1.00
N1       0.84336    0.23961    -0.00857   1.00
C6       0.86048    0.21248    -0.03073   1.00
C6       0.85128    0.23055    0.02846   1.00
C6       0.87913    0.18546    -0.00759   1.00
C6       0.87329    0.19695    0.03005   1.00
H3       0.85927    0.21203    -0.06197   1.00
H3       0.84141    0.24715    0.05300   1.00
H3       0.89522    0.16021    -0.01713   1.00
H3       0.88387    0.18243    0.05575   1.00
N1       0.67483    0.30634    0.00857   1.00
C6       0.66286    0.30516    -0.02846   1.00
C6       0.64379    0.29829    0.03073   1.00
C6       0.62382    0.29574    -0.03005   1.00
C6       0.61169    0.29136    0.00759   1.00
H3       0.68142    0.31051    -0.05300   1.00
H3       0.64436    0.29713    0.06197   1.00
H3       0.60616    0.29240    -0.05575   1.00
H3       0.58268    0.28398    0.01713   1.00
C4       0.99982    0.99993    1.22915   1.00
C4       1.00018    1.00007    1.27085   1.00
C3a      0.98264    0.96877    1.20746   1.00
C3       0.96688    1.01125    1.29232   1.00
C3       1.01644    1.03087    1.20768   1.00
C3a      1.03403    0.98912    1.29254   1.00
C2       0.99997    1.00007    1.14488   1.00
C2       0.99997    1.00008    1.35512   1.00
C3       0.98306    0.96930    1.16595   1.00
C3       0.96679    1.01112    1.33363   1.00
C3       1.01659    1.03084    1.16637   1.00
C3       1.03336    0.98922    1.33405   1.00
C5       0.96415    0.93416    1.22772   1.00
H1       0.94063    1.01976    1.27691   1.00
H1       0.97015    0.94546    1.14979   1.00
H1       0.94057    1.01968    1.34901   1.00
H1       1.02984    1.05503    1.15099   1.00
H1       1.05910    0.98068    1.35021   1.00
C5       1.07120    0.97655    1.27228   1.00
H1       1.02975    1.05505    1.22309   1.00
H2       1.08940    0.95901    1.29256   1.00
H2       1.06431    0.95708    1.24731   1.00
H2       0.96290    0.90892    1.20744   1.00
H2       0.98250    0.92469    1.25269   1.00
N1       1.09336    1.01039    1.25857   1.00
C6       1.11048    1.03752    1.28073   1.00
C6       1.10128    1.01945    1.22154   1.00
C6       1.12913    1.06454    1.25759   1.00
C6       1.12329    1.05305    1.21995   1.00
H3       1.10927    1.03797    1.31197   1.00
H3       1.09141    1.00285    1.19700   1.00
H3       1.14522    1.08979    1.26713   1.00
H3       1.13387    1.06757    1.19425   1.00
N1       0.92483    0.94366    1.24143   1.00
C6       0.91286    0.94484    1.27846   1.00
C6       0.89379    0.95171    1.21927   1.00
C6       0.87382    0.95426    1.28005   1.00
C6       0.86169    0.95864    1.24241   1.00
H3       0.93142    0.93949    1.30300   1.00
H3       0.89436    0.95287    1.18803   1.00
H3       0.85616    0.95760    1.30575   1.00
H3       0.83268    0.96602    1.23287   1.00
C4       0.99993    1.22915    0.99982   1.00
C4       1.00007    1.27085    1.00018   1.00
C3a      0.96877    1.20746    0.98264   1.00
C3       1.01125    1.29232    0.96688   1.00
C3       1.03087    1.20768    1.01644   1.00
C3a      0.98912    1.29254    1.03403   1.00
C2       1.00007    1.14488    0.99997   1.00
C2       1.00008    1.35512    0.99997   1.00
C3       0.96930    1.16595    0.98306   1.00
C3       1.01112    1.33363    0.96679   1.00
C3       1.03084    1.16637    1.01659   1.00
C3       0.98922    1.33405    1.03336   1.00
C5       0.93416    1.22772    0.96415   1.00
H1       1.01976    1.27691    0.94063   1.00
H1       0.94546    1.14979    0.97015   1.00
H1       1.01968    1.34901    0.94057   1.00
H1       1.05503    1.15099    1.02984   1.00
H1       0.98068    1.35021    1.05910   1.00
C5       0.97655    1.27228    1.07120   1.00
H1       1.05505    1.22309    1.02975   1.00
H2       0.95901    1.29256    1.08940   1.00
H2       0.95708    1.24731    1.06431   1.00
H2       0.90892    1.20744    0.96290   1.00
H2       0.92469    1.25269    0.98250   1.00
N1       1.01039    1.25857    1.09336   1.00
C6       1.03752    1.28073    1.11048   1.00
C6       1.01945    1.22154    1.10128   1.00
C6       1.06454    1.25759    1.12913   1.00
C6       1.05305    1.21995    1.12329   1.00
H3       1.03797    1.31197    1.10927   1.00
H3       1.00285    1.19700    1.09141   1.00
H3       1.08979    1.26713    1.14522   1.00
H3       1.06757    1.19425    1.13387   1.00
N1       0.94366    1.24143    0.92483   1.00
C6       0.94484    1.27846    0.91286   1.00
C6       0.95171    1.21927    0.89379   1.00
C6       0.95426    1.28005    0.87382   1.00
C6       0.95864    1.24241    0.86169   1.00
H3       0.93949    1.30300    0.93142   1.00
H3       0.95287    1.18803    0.89436   1.00
H3       0.95760    1.30575    0.85616   1.00
H3       0.96602    1.23287    0.83268   1.00
C4       0.77085    0.99982    1.00007   1.00
C4       0.72915    1.00018    0.99993   1.00
C3a      0.79254    0.98264    1.03123   1.00
C3       0.70768    0.96688    0.98875   1.00
C3       0.79232    1.01644    0.96913   1.00
C3a      0.70746    1.03403    1.01088   1.00
C2       0.85512    0.99997    0.99993   1.00
C2       0.64488    0.99997    0.99992   1.00
C3       0.83405    0.98306    1.03070   1.00
C3       0.66637    0.96679    0.98888   1.00
C3       0.83363    1.01659    0.96916   1.00
C3       0.66595    1.03336    1.01078   1.00
C5       0.77228    0.96415    1.06584   1.00
H1       0.72309    0.94063    0.98024   1.00
H1       0.85021    0.97015    1.05454   1.00
H1       0.65099    0.94057    0.98032   1.00
H1       0.84901    1.02984    0.94497   1.00
H1       0.64979    1.05910    1.01932   1.00
C5       0.72772    1.07120    1.02345   1.00
H1       0.77691    1.02975    0.94495   1.00
H2       0.70744    1.08940    1.04099   1.00
H2       0.75269    1.06431    1.04292   1.00
H2       0.79256    0.96290    1.09108   1.00
H2       0.74731    0.98250    1.07531   1.00
N1       0.74143    1.09336    0.98961   1.00
C6       0.71927    1.11048    0.96248   1.00
C6       0.77846    1.10128    0.98055   1.00
C6       0.74241    1.12913    0.93546   1.00
C6       0.78005    1.12329    0.94695   1.00
H3       0.68803    1.10927    0.96203   1.00
H3       0.80300    1.09141    0.99715   1.00
H3       0.73287    1.14522    0.91021   1.00
H3       0.80575    1.13387    0.93243   1.00
N1       0.75857    0.92483    1.05634   1.00
C6       0.72154    0.91286    1.05516   1.00
C6       0.78073    0.89379    1.04829   1.00
C6       0.71995    0.87382    1.04574   1.00
C6       0.75759    0.86169    1.04136   1.00
H3       0.69700    0.93142    1.06051   1.00
H3       0.81197    0.89436    1.04713   1.00
H3       0.69425    0.85616    1.04240   1.00
H3       0.76713    0.83268    1.03398   1.00
C4       1.22915    0.99982    0.99993   1.00
C4       1.27085    1.00018    1.00007   1.00
C3a      1.20746    0.98264    0.96877   1.00
C3       1.29232    0.96688    1.01125   1.00
C3       1.20768    1.01644    1.03087   1.00
C3a      1.29254    1.03403    0.98912   1.00
C2       1.14488    0.99997    1.00007   1.00
C2       1.35512    0.99997    1.00008   1.00
C3       1.16595    0.98306    0.96930   1.00
C3       1.33363    0.96679    1.01112   1.00
C3       1.16637    1.01659    1.03084   1.00
C3       1.33405    1.03336    0.98922   1.00
C5       1.22772    0.96415    0.93416   1.00
H1       1.27691    0.94063    1.01976   1.00
H1       1.14979    0.97015    0.94546   1.00
H1       1.34901    0.94057    1.01968   1.00
H1       1.15099    1.02984    1.05503   1.00
H1       1.35021    1.05910    0.98068   1.00
C5       1.27228    1.07120    0.97655   1.00
H1       1.22309    1.02975    1.05505   1.00
H2       1.29256    1.08940    0.95901   1.00
H2       1.24731    1.06431    0.95708   1.00
H2       1.20744    0.96290    0.90892   1.00
H2       1.25269    0.98250    0.92469   1.00
N1       1.25857    1.09336    1.01039   1.00
C6       1.28073    1.11048    1.03752   1.00
C6       1.22154    1.10128    1.01945   1.00
C6       1.25759    1.12913    1.06454   1.00
C6       1.21995    1.12329    1.05305   1.00
H3       1.31197    1.10927    1.03797   1.00
H3       1.19700    1.09141    1.00285   1.00
H3       1.26713    1.14522    1.08979   1.00
H3       1.19425    1.13387    1.06757   1.00
N1       1.24143    0.92483    0.94366   1.00
C6       1.27846    0.91286    0.94484   1.00
C6       1.21927    0.89379    0.95171   1.00
C6       1.28005    0.87382    0.95426   1.00
C6       1.24241    0.86169    0.95864   1.00
H3       1.30300    0.93142    0.93949   1.00
H3       1.18803    0.89436    0.95287   1.00
H3       1.30575    0.85616    0.95760   1.00
H3       1.23287    0.83268    0.96602   1.00
C4       1.00007    0.77085    0.99982   1.00
C4       0.99993    0.72915    1.00018   1.00
C3a      1.03123    0.79254    0.98264   1.00
C3       0.98875    0.70768    0.96688   1.00
C3       0.96913    0.79232    1.01644   1.00
C3a      1.01088    0.70746    1.03403   1.00
C2       0.99993    0.85512    0.99997   1.00
C2       0.99992    0.64488    0.99997   1.00
C3       1.03070    0.83405    0.98306   1.00
C3       0.98888    0.66637    0.96679   1.00
C3       0.96916    0.83363    1.01659   1.00
C3       1.01078    0.66595    1.03336   1.00
C5       1.06584    0.77228    0.96415   1.00
H1       0.98024    0.72309    0.94063   1.00
H1       1.05454    0.85021    0.97015   1.00
H1       0.98032    0.65099    0.94057   1.00
H1       0.94497    0.84901    1.02984   1.00
H1       1.01932    0.64979    1.05910   1.00
C5       1.02345    0.72772    1.07120   1.00
H1       0.94495    0.77691    1.02975   1.00
H2       1.04099    0.70744    1.08940   1.00
H2       1.04292    0.75269    1.06431   1.00
H2       1.09108    0.79256    0.96290   1.00
H2       1.07531    0.74731    0.98250   1.00
N1       0.98961    0.74143    1.09336   1.00
C6       0.96248    0.71927    1.11048   1.00
C6       0.98055    0.77846    1.10128   1.00
C6       0.93546    0.74241    1.12913   1.00
C6       0.94695    0.78005    1.12329   1.00
H3       0.96203    0.68803    1.10927   1.00
H3       0.99715    0.80300    1.09141   1.00
H3       0.91021    0.73287    1.14522   1.00
H3       0.93243    0.80575    1.13387   1.00
N1       1.05634    0.75857    0.92483   1.00
C6       1.05516    0.72154    0.91286   1.00
C6       1.04829    0.78073    0.89379   1.00
C6       1.04574    0.71995    0.87382   1.00
C6       1.04136    0.75759    0.86169   1.00
H3       1.06051    0.69700    0.93142   1.00
H3       1.04713    0.81197    0.89436   1.00
H3       1.04240    0.69425    0.85616   1.00
H3       1.03398    0.76713    0.83268   1.00
C4       0.99982    1.00007    0.77085   1.00
C4       1.00018    0.99993    0.72915   1.00
C3a      0.98264    1.03123    0.79254   1.00
C3       0.96688    0.98875    0.70768   1.00
C3       1.01644    0.96913    0.79232   1.00
C3a      1.03403    1.01088    0.70746   1.00
C2       0.99997    0.99993    0.85512   1.00
C2       0.99997    0.99992    0.64488   1.00
C3       0.98306    1.03070    0.83405   1.00
C3       0.96679    0.98888    0.66637   1.00
C3       1.01659    0.96916    0.83363   1.00
C3       1.03336    1.01078    0.66595   1.00
C5       0.96415    1.06584    0.77228   1.00
H1       0.94063    0.98024    0.72309   1.00
H1       0.97015    1.05454    0.85021   1.00
H1       0.94057    0.98032    0.65099   1.00
H1       1.02984    0.94497    0.84901   1.00
H1       1.05910    1.01932    0.64979   1.00
C5       1.07120    1.02345    0.72772   1.00
H1       1.02975    0.94495    0.77691   1.00
H2       1.08940    1.04099    0.70744   1.00
H2       1.06431    1.04292    0.75269   1.00
H2       0.96290    1.09108    0.79256   1.00
H2       0.98250    1.07531    0.74731   1.00
N1       1.09336    0.98961    0.74143   1.00
C6       1.11048    0.96248    0.71927   1.00
C6       1.10128    0.98055    0.77846   1.00
C6       1.12913    0.93546    0.74241   1.00
C6       1.12329    0.94695    0.78005   1.00
H3       1.10927    0.96203    0.68803   1.00
H3       1.09141    0.99715    0.80300   1.00
H3       1.14522    0.91021    0.73287   1.00
H3       1.13387    0.93243    0.80575   1.00
N1       0.92483    1.05634    0.75857   1.00
C6       0.91286    1.05516    0.72154   1.00
C6       0.89379    1.04829    0.78073   1.00
C6       0.87382    1.04574    0.71995   1.00
C6       0.86169    1.04136    0.75759   1.00
H3       0.93142    1.06051    0.69700   1.00
H3       0.89436    1.04713    0.81197   1.00
H3       0.85616    1.04240    0.69425   1.00
H3       0.83268    1.03398    0.76713   1.00
C4       0.49982    0.49993    1.22915   1.00
C4       0.50018    0.50007    1.27085   1.00
C3a      0.48264    0.46877    1.20746   1.00
C3       0.46688    0.51125    1.29232   1.00
C3       0.51644    0.53087    1.20768   1.00
C3a      0.53403    0.48912    1.29254   1.00
C2       0.49997    0.50007    1.14488   1.00
C2       0.49997    0.50008    1.35512   1.00
C3       0.48306    0.46930    1.16595   1.00
C3       0.46679    0.51112    1.33363   1.00
C3       0.51659    0.53084    1.16637   1.00
C3       0.53336    0.48922    1.33405   1.00
C5       0.46415    0.43416    1.22772   1.00
H1       0.44063    0.51976    1.27691   1.00
H1       0.47015    0.44546    1.14979   1.00
H1       0.44057    0.51968    1.34901   1.00
H1       0.52984    0.55503    1.15099   1.00
H1       0.55910    0.48068    1.35021   1.00
C5       0.57120    0.47655    1.27228   1.00
H1       0.52975    0.55505    1.22309   1.00
H2       0.58940    0.45901    1.29256   1.00
H2       0.56431    0.45708    1.24731   1.00
H2       0.46290    0.40892    1.20744   1.00
H2       0.48250    0.42469    1.25269   1.00
N1       0.59336    0.51039    1.25857   1.00
C6       0.61048    0.53752    1.28073   1.00
C6       0.60128    0.51945    1.22154   1.00
C6       0.62913    0.56454    1.25759   1.00
C6       0.62329    0.55305    1.21995   1.00
H3       0.60927    0.53797    1.31197   1.00
H3       0.59141    0.50285    1.19700   1.00
H3       0.64522    0.58979    1.26713   1.00
H3       0.63387    0.56757    1.19425   1.00
N1       0.42483    0.44366    1.24143   1.00
C6       0.41286    0.44484    1.27846   1.00
C6       0.39379    0.45171    1.21927   1.00
C6       0.37382    0.45426    1.28005   1.00
C6       0.36169    0.45864    1.24241   1.00
H3       0.43142    0.43949    1.30300   1.00
H3       0.39436    0.45287    1.18803   1.00
H3       0.35616    0.45760    1.30575   1.00
H3       0.33268    0.46602    1.23287   1.00
C4       0.49993    0.72915    0.99982   1.00
C4       0.50007    0.77085    1.00018   1.00
C3a      0.46877    0.70746    0.98264   1.00
C3       0.51125    0.79232    0.96688   1.00
C3       0.53087    0.70768    1.01644   1.00
C3a      0.48912    0.79254    1.03403   1.00
C2       0.50007    0.64488    0.99997   1.00
C2       0.50008    0.85512    0.99997   1.00
C3       0.46930    0.66595    0.98306   1.00
C3       0.51112    0.83363    0.96679   1.00
C3       0.53084    0.66637    1.01659   1.00
C3       0.48922    0.83405    1.03336   1.00
C5       0.43416    0.72772    0.96415   1.00
H1       0.51976    0.77691    0.94063   1.00
H1       0.44546    0.64979    0.97015   1.00
H1       0.51968    0.84901    0.94057   1.00
H1       0.55503    0.65099    1.02984   1.00
H1       0.48068    0.85021    1.05910   1.00
C5       0.47655    0.77228    1.07120   1.00
H1       0.55505    0.72309    1.02975   1.00
H2       0.45901    0.79256    1.08940   1.00
H2       0.45708    0.74731    1.06431   1.00
H2       0.40892    0.70744    0.96290   1.00
H2       0.42469    0.75269    0.98250   1.00
N1       0.51039    0.75857    1.09336   1.00
C6       0.53752    0.78073    1.11048   1.00
C6       0.51945    0.72154    1.10128   1.00
C6       0.56454    0.75759    1.12913   1.00
C6       0.55305    0.71995    1.12329   1.00
H3       0.53797    0.81197    1.10927   1.00
H3       0.50285    0.69700    1.09141   1.00
H3       0.58979    0.76713    1.14522   1.00
H3       0.56757    0.69425    1.13387   1.00
N1       0.44366    0.74143    0.92483   1.00
C6       0.44484    0.77846    0.91286   1.00
C6       0.45171    0.71927    0.89379   1.00
C6       0.45426    0.78005    0.87382   1.00
C6       0.45864    0.74241    0.86169   1.00
H3       0.43949    0.80300    0.93142   1.00
H3       0.45287    0.68803    0.89436   1.00
H3       0.45760    0.80575    0.85616   1.00
H3       0.46602    0.73287    0.83268   1.00
C4       0.27085    0.49982    1.00007   1.00
C4       0.22915    0.50018    0.99993   1.00
C3a      0.29254    0.48264    1.03123   1.00
C3       0.20768    0.46688    0.98875   1.00
C3       0.29232    0.51644    0.96913   1.00
C3a      0.20746    0.53403    1.01088   1.00
C2       0.35512    0.49997    0.99993   1.00
C2       0.14488    0.49997    0.99992   1.00
C3       0.33405    0.48306    1.03070   1.00
C3       0.16637    0.46679    0.98888   1.00
C3       0.33363    0.51659    0.96916   1.00
C3       0.16595    0.53336    1.01078   1.00
C5       0.27228    0.46415    1.06584   1.00
H1       0.22309    0.44063    0.98024   1.00
H1       0.35021    0.47015    1.05454   1.00
H1       0.15099    0.44057    0.98032   1.00
H1       0.34901    0.52984    0.94497   1.00
H1       0.14979    0.55910    1.01932   1.00
C5       0.22772    0.57120    1.02345   1.00
H1       0.27691    0.52975    0.94495   1.00
H2       0.20744    0.58940    1.04099   1.00
H2       0.25269    0.56431    1.04292   1.00
H2       0.29256    0.46290    1.09108   1.00
H2       0.24731    0.48250    1.07531   1.00
N1       0.24143    0.59336    0.98961   1.00
C6       0.21927    0.61048    0.96248   1.00
C6       0.27846    0.60128    0.98055   1.00
C6       0.24241    0.62913    0.93546   1.00
C6       0.28005    0.62329    0.94695   1.00
H3       0.18803    0.60927    0.96203   1.00
H3       0.30300    0.59141    0.99715   1.00
H3       0.23287    0.64522    0.91021   1.00
H3       0.30575    0.63387    0.93243   1.00
N1       0.25857    0.42483    1.05634   1.00
C6       0.22154    0.41286    1.05516   1.00
C6       0.28073    0.39379    1.04829   1.00
C6       0.21995    0.37382    1.04574   1.00
C6       0.25759    0.36169    1.04136   1.00
H3       0.19700    0.43142    1.06051   1.00
H3       0.31197    0.39436    1.04713   1.00
H3       0.19425    0.35616    1.04240   1.00
H3       0.26713    0.33268    1.03398   1.00
C4       0.72915    0.49982    0.99993   1.00
C4       0.77085    0.50018    1.00007   1.00
C3a      0.70746    0.48264    0.96877   1.00
C3       0.79232    0.46688    1.01125   1.00
C3       0.70768    0.51644    1.03087   1.00
C3a      0.79254    0.53403    0.98912   1.00
C2       0.64488    0.49997    1.00007   1.00
C2       0.85512    0.49997    1.00008   1.00
C3       0.66595    0.48306    0.96930   1.00
C3       0.83363    0.46679    1.01112   1.00
C3       0.66637    0.51659    1.03084   1.00
C3       0.83405    0.53336    0.98922   1.00
C5       0.72772    0.46415    0.93416   1.00
H1       0.77691    0.44063    1.01976   1.00
H1       0.64979    0.47015    0.94546   1.00
H1       0.84901    0.44057    1.01968   1.00
H1       0.65099    0.52984    1.05503   1.00
H1       0.85021    0.55910    0.98068   1.00
C5       0.77228    0.57120    0.97655   1.00
H1       0.72309    0.52975    1.05505   1.00
H2       0.79256    0.58940    0.95901   1.00
H2       0.74731    0.56431    0.95708   1.00
H2       0.70744    0.46290    0.90892   1.00
H2       0.75269    0.48250    0.92469   1.00
N1       0.75857    0.59336    1.01039   1.00
C6       0.78073    0.61048    1.03752   1.00
C6       0.72154    0.60128    1.01945   1.00
C6       0.75759    0.62913    1.06454   1.00
C6       0.71995    0.62329    1.05305   1.00
H3       0.81197    0.60927    1.03797   1.00
H3       0.69700    0.59141    1.00285   1.00
H3       0.76713    0.64522    1.08979   1.00
H3       0.69425    0.63387    1.06757   1.00
N1       0.74143    0.42483    0.94366   1.00
C6       0.77846    0.41286    0.94484   1.00
C6       0.71927    0.39379    0.95171   1.00
C6       0.78005    0.37382    0.95426   1.00
C6       0.74241    0.36169    0.95864   1.00
H3       0.80300    0.43142    0.93949   1.00
H3       0.68803    0.39436    0.95287   1.00
H3       0.80575    0.35616    0.95760   1.00
H3       0.73287    0.33268    0.96602   1.00
C4       0.50007    0.27085    0.99982   1.00
C4       0.49993    0.22915    1.00018   1.00
C3a      0.53123    0.29254    0.98264   1.00
C3       0.48875    0.20768    0.96688   1.00
C3       0.46913    0.29232    1.01644   1.00
C3a      0.51088    0.20746    1.03403   1.00
C2       0.49993    0.35512    0.99997   1.00
C2       0.49992    0.14488    0.99997   1.00
C3       0.53070    0.33405    0.98306   1.00
C3       0.48888    0.16637    0.96679   1.00
C3       0.46916    0.33363    1.01659   1.00
C3       0.51078    0.16595    1.03336   1.00
C5       0.56584    0.27228    0.96415   1.00
H1       0.48024    0.22309    0.94063   1.00
H1       0.55454    0.35021    0.97015   1.00
H1       0.48032    0.15099    0.94057   1.00
H1       0.44497    0.34901    1.02984   1.00
H1       0.51932    0.14979    1.05910   1.00
C5       0.52345    0.22772    1.07120   1.00
H1       0.44495    0.27691    1.02975   1.00
H2       0.54099    0.20744    1.08940   1.00
H2       0.54292    0.25269    1.06431   1.00
H2       0.59108    0.29256    0.96290   1.00
H2       0.57531    0.24731    0.98250   1.00
N1       0.48961    0.24143    1.09336   1.00
C6       0.46248    0.21927    1.11048   1.00
C6       0.48055    0.27846    1.10128   1.00
C6       0.43546    0.24241    1.12913   1.00
C6       0.44695    0.28005    1.12329   1.00
H3       0.46203    0.18803    1.10927   1.00
H3       0.49715    0.30300    1.09141   1.00
H3       0.41021    0.23287    1.14522   1.00
H3       0.43243    0.30575    1.13387   1.00
N1       0.55634    0.25857    0.92483   1.00
C6       0.55516    0.22154    0.91286   1.00
C6       0.54829    0.28073    0.89379   1.00
C6       0.54574    0.21995    0.87382   1.00
C6       0.54136    0.25759    0.86169   1.00
H3       0.56051    0.19700    0.93142   1.00
H3       0.54713    0.31197    0.89436   1.00
H3       0.54240    0.19425    0.85616   1.00
H3       0.53398    0.26713    0.83268   1.00
C4       0.49982    0.50007    0.77085   1.00
C4       0.50018    0.49993    0.72915   1.00
C3a      0.48264    0.53123    0.79254   1.00
C3       0.46688    0.48875    0.70768   1.00
C3       0.51644    0.46913    0.79232   1.00
C3a      0.53403    0.51088    0.70746   1.00
C2       0.49997    0.49993    0.85512   1.00
C2       0.49997    0.49992    0.64488   1.00
C3       0.48306    0.53070    0.83405   1.00
C3       0.46679    0.48888    0.66637   1.00
C3       0.51659    0.46916    0.83363   1.00
C3       0.53336    0.51078    0.66595   1.00
C5       0.46415    0.56584    0.77228   1.00
H1       0.44063    0.48024    0.72309   1.00
H1       0.47015    0.55454    0.85021   1.00
H1       0.44057    0.48032    0.65099   1.00
H1       0.52984    0.44497    0.84901   1.00
H1       0.55910    0.51932    0.64979   1.00
C5       0.57120    0.52345    0.72772   1.00
H1       0.52975    0.44495    0.77691   1.00
H2       0.58940    0.54099    0.70744   1.00
H2       0.56431    0.54292    0.75269   1.00
H2       0.46290    0.59108    0.79256   1.00
H2       0.48250    0.57531    0.74731   1.00
N1       0.59336    0.48961    0.74143   1.00
C6       0.61048    0.46248    0.71927   1.00
C6       0.60128    0.48055    0.77846   1.00
C6       0.62913    0.43546    0.74241   1.00
C6       0.62329    0.44695    0.78005   1.00
H3       0.60927    0.46203    0.68803   1.00
H3       0.59141    0.49715    0.80300   1.00
H3       0.64522    0.41021    0.73287   1.00
H3       0.63387    0.43243    0.80575   1.00
N1       0.42483    0.55634    0.75857   1.00
C6       0.41286    0.55516    0.72154   1.00
C6       0.39379    0.54829    0.78073   1.00
C6       0.37382    0.54574    0.71995   1.00
C6       0.36169    0.54136    0.75759   1.00
H3       0.43142    0.56051    0.69700   1.00
H3       0.39436    0.54713    0.81197   1.00
H3       0.35616    0.54240    0.69425   1.00
H3       0.33268    0.53398    0.76713   1.00
C4       0.49982    0.99993    0.72915   1.00
C4       0.50018    1.00007    0.77085   1.00
C3a      0.48264    0.96877    0.70746   1.00
C3       0.46688    1.01125    0.79232   1.00
C3       0.51644    1.03087    0.70768   1.00
C3a      0.53403    0.98912    0.79254   1.00
C2       0.49997    1.00007    0.64488   1.00
C2       0.49997    1.00008    0.85512   1.00
C3       0.48306    0.96930    0.66595   1.00
C3       0.46679    1.01112    0.83363   1.00
C3       0.51659    1.03084    0.66637   1.00
C3       0.53336    0.98922    0.83405   1.00
C5       0.46415    0.93416    0.72772   1.00
H1       0.44063    1.01976    0.77691   1.00
H1       0.47015    0.94546    0.64979   1.00
H1       0.44057    1.01968    0.84901   1.00
H1       0.52984    1.05503    0.65099   1.00
H1       0.55910    0.98068    0.85021   1.00
C5       0.57120    0.97655    0.77228   1.00
H1       0.52975    1.05505    0.72309   1.00
H2       0.58940    0.95901    0.79256   1.00
H2       0.56431    0.95708    0.74731   1.00
H2       0.46290    0.90892    0.70744   1.00
H2       0.48250    0.92469    0.75269   1.00
N1       0.59336    1.01039    0.75857   1.00
C6       0.61048    1.03752    0.78073   1.00
C6       0.60128    1.01945    0.72154   1.00
C6       0.62913    1.06454    0.75759   1.00
C6       0.62329    1.05305    0.71995   1.00
H3       0.60927    1.03797    0.81197   1.00
H3       0.59141    1.00285    0.69700   1.00
H3       0.64522    1.08979    0.76713   1.00
H3       0.63387    1.06757    0.69425   1.00
N1       0.42483    0.94366    0.74143   1.00
C6       0.41286    0.94484    0.77846   1.00
C6       0.39379    0.95171    0.71927   1.00
C6       0.37382    0.95426    0.78005   1.00
C6       0.36169    0.95864    0.74241   1.00
H3       0.43142    0.93949    0.80300   1.00
H3       0.39436    0.95287    0.68803   1.00
H3       0.35616    0.95760    0.80575   1.00
H3       0.33268    0.96602    0.73287   1.00
C4       0.49993    1.22915    0.49982   1.00
C4       0.50007    1.27085    0.50018   1.00
C3a      0.46877    1.20746    0.48264   1.00
C3       0.51125    1.29232    0.46688   1.00
C3       0.53087    1.20768    0.51644   1.00
C3a      0.48912    1.29254    0.53403   1.00
C2       0.50007    1.14488    0.49997   1.00
C2       0.50008    1.35512    0.49997   1.00
C3       0.46930    1.16595    0.48306   1.00
C3       0.51112    1.33363    0.46679   1.00
C3       0.53084    1.16637    0.51659   1.00
C3       0.48922    1.33405    0.53336   1.00
C5       0.43416    1.22772    0.46415   1.00
H1       0.51976    1.27691    0.44063   1.00
H1       0.44546    1.14979    0.47015   1.00
H1       0.51968    1.34901    0.44057   1.00
H1       0.55503    1.15099    0.52984   1.00
H1       0.48068    1.35021    0.55910   1.00
C5       0.47655    1.27228    0.57120   1.00
H1       0.55505    1.22309    0.52975   1.00
H2       0.45901    1.29256    0.58940   1.00
H2       0.45708    1.24731    0.56431   1.00
H2       0.40892    1.20744    0.46290   1.00
H2       0.42469    1.25269    0.48250   1.00
N1       0.51039    1.25857    0.59336   1.00
C6       0.53752    1.28073    0.61048   1.00
C6       0.51945    1.22154    0.60128   1.00
C6       0.56454    1.25759    0.62913   1.00
C6       0.55305    1.21995    0.62329   1.00
H3       0.53797    1.31197    0.60927   1.00
H3       0.50285    1.19700    0.59141   1.00
H3       0.58979    1.26713    0.64522   1.00
H3       0.56757    1.19425    0.63387   1.00
N1       0.44366    1.24143    0.42483   1.00
C6       0.44484    1.27846    0.41286   1.00
C6       0.45171    1.21927    0.39379   1.00
C6       0.45426    1.28005    0.37382   1.00
C6       0.45864    1.24241    0.36169   1.00
H3       0.43949    1.30300    0.43142   1.00
H3       0.45287    1.18803    0.39436   1.00
H3       0.45760    1.30575    0.35616   1.00
H3       0.46602    1.23287    0.33268   1.00
C4       0.27085    0.99982    0.50007   1.00
C4       0.22915    1.00018    0.49993   1.00
C3a      0.29254    0.98264    0.53123   1.00
C3       0.20768    0.96688    0.48875   1.00
C3       0.29232    1.01644    0.46913   1.00
C3a      0.20746    1.03403    0.51088   1.00
C2       0.35512    0.99997    0.49993   1.00
C2       0.14488    0.99997    0.49992   1.00
C3       0.33405    0.98306    0.53070   1.00
C3       0.16637    0.96679    0.48888   1.00
C3       0.33363    1.01659    0.46916   1.00
C3       0.16595    1.03336    0.51078   1.00
C5       0.27228    0.96415    0.56584   1.00
H1       0.22309    0.94063    0.48024   1.00
H1       0.35021    0.97015    0.55454   1.00
H1       0.15099    0.94057    0.48032   1.00
H1       0.34901    1.02984    0.44497   1.00
H1       0.14979    1.05910    0.51932   1.00
C5       0.22772    1.07120    0.52345   1.00
H1       0.27691    1.02975    0.44495   1.00
H2       0.20744    1.08940    0.54099   1.00
H2       0.25269    1.06431    0.54292   1.00
H2       0.29256    0.96290    0.59108   1.00
H2       0.24731    0.98250    0.57531   1.00
N1       0.24143    1.09336    0.48961   1.00
C6       0.21927    1.11048    0.46248   1.00
C6       0.27846    1.10128    0.48055   1.00
C6       0.24241    1.12913    0.43546   1.00
C6       0.28005    1.12329    0.44695   1.00
H3       0.18803    1.10927    0.46203   1.00
H3       0.30300    1.09141    0.49715   1.00
H3       0.23287    1.14522    0.41021   1.00
H3       0.30575    1.13387    0.43243   1.00
N1       0.25857    0.92483    0.55634   1.00
C6       0.22154    0.91286    0.55516   1.00
C6       0.28073    0.89379    0.54829   1.00
C6       0.21995    0.87382    0.54574   1.00
C6       0.25759    0.86169    0.54136   1.00
H3       0.19700    0.93142    0.56051   1.00
H3       0.31197    0.89436    0.54713   1.00
H3       0.19425    0.85616    0.54240   1.00
H3       0.26713    0.83268    0.53398   1.00
C4       0.72915    0.99982    0.49993   1.00
C4       0.77085    1.00018    0.50007   1.00
C3a      0.70746    0.98264    0.46877   1.00
C3       0.79232    0.96688    0.51125   1.00
C3       0.70768    1.01644    0.53087   1.00
C3a      0.79254    1.03403    0.48912   1.00
C2       0.64488    0.99997    0.50007   1.00
C2       0.85512    0.99997    0.50008   1.00
C3       0.66595    0.98306    0.46930   1.00
C3       0.83363    0.96679    0.51112   1.00
C3       0.66637    1.01659    0.53084   1.00
C3       0.83405    1.03336    0.48922   1.00
C5       0.72772    0.96415    0.43416   1.00
H1       0.77691    0.94063    0.51976   1.00
H1       0.64979    0.97015    0.44546   1.00
H1       0.84901    0.94057    0.51968   1.00
H1       0.65099    1.02984    0.55503   1.00
H1       0.85021    1.05910    0.48068   1.00
C5       0.77228    1.07120    0.47655   1.00
H1       0.72309    1.02975    0.55505   1.00
H2       0.79256    1.08940    0.45901   1.00
H2       0.74731    1.06431    0.45708   1.00
H2       0.70744    0.96290    0.40892   1.00
H2       0.75269    0.98250    0.42469   1.00
N1       0.75857    1.09336    0.51039   1.00
C6       0.78073    1.11048    0.53752   1.00
C6       0.72154    1.10128    0.51945   1.00
C6       0.75759    1.12913    0.56454   1.00
C6       0.71995    1.12329    0.55305   1.00
H3       0.81197    1.10927    0.53797   1.00
H3       0.69700    1.09141    0.50285   1.00
H3       0.76713    1.14522    0.58979   1.00
H3       0.69425    1.13387    0.56757   1.00
N1       0.74143    0.92483    0.44366   1.00
C6       0.77846    0.91286    0.44484   1.00
C6       0.71927    0.89379    0.45171   1.00
C6       0.78005    0.87382    0.45426   1.00
C6       0.74241    0.86169    0.45864   1.00
H3       0.80300    0.93142    0.43949   1.00
H3       0.68803    0.89436    0.45287   1.00
H3       0.80575    0.85616    0.45760   1.00
H3       0.73287    0.83268    0.46602   1.00
C4       0.50007    0.77085    0.49982   1.00
C4       0.49993    0.72915    0.50018   1.00
C3a      0.53123    0.79254    0.48264   1.00
C3       0.48875    0.70768    0.46688   1.00
C3       0.46913    0.79232    0.51644   1.00
C3a      0.51088    0.70746    0.53403   1.00
C2       0.49993    0.85512    0.49997   1.00
C2       0.49992    0.64488    0.49997   1.00
C3       0.53070    0.83405    0.48306   1.00
C3       0.48888    0.66637    0.46679   1.00
C3       0.46916    0.83363    0.51659   1.00
C3       0.51078    0.66595    0.53336   1.00
C5       0.56584    0.77228    0.46415   1.00
H1       0.48024    0.72309    0.44063   1.00
H1       0.55454    0.85021    0.47015   1.00
H1       0.48032    0.65099    0.44057   1.00
H1       0.44497    0.84901    0.52984   1.00
H1       0.51932    0.64979    0.55910   1.00
C5       0.52345    0.72772    0.57120   1.00
H1       0.44495    0.77691    0.52975   1.00
H2       0.54099    0.70744    0.58940   1.00
H2       0.54292    0.75269    0.56431   1.00
H2       0.59108    0.79256    0.46290   1.00
H2       0.57531    0.74731    0.48250   1.00
N1       0.48961    0.74143    0.59336   1.00
C6       0.46248    0.71927    0.61048   1.00
C6       0.48055    0.77846    0.60128   1.00
C6       0.43546    0.74241    0.62913   1.00
C6       0.44695    0.78005    0.62329   1.00
H3       0.46203    0.68803    0.60927   1.00
H3       0.49715    0.80300    0.59141   1.00
H3       0.41021    0.73287    0.64522   1.00
H3       0.43243    0.80575    0.63387   1.00
N1       0.55634    0.75857    0.42483   1.00
C6       0.55516    0.72154    0.41286   1.00
C6       0.54829    0.78073    0.39379   1.00
C6       0.54574    0.71995    0.37382   1.00
C6       0.54136    0.75759    0.36169   1.00
H3       0.56051    0.69700    0.43142   1.00
H3       0.54713    0.81197    0.39436   1.00
H3       0.54240    0.69425    0.35616   1.00
H3       0.53398    0.76713    0.33268   1.00
C4       0.49982    1.00007    0.27085   1.00
C4       0.50018    0.99993    0.22915   1.00
C3a      0.48264    1.03123    0.29254   1.00
C3       0.46688    0.98875    0.20768   1.00
C3       0.51644    0.96913    0.29232   1.00
C3a      0.53403    1.01088    0.20746   1.00
C2       0.49997    0.99993    0.35512   1.00
C2       0.49997    0.99992    0.14488   1.00
C3       0.48306    1.03070    0.33405   1.00
C3       0.46679    0.98888    0.16637   1.00
C3       0.51659    0.96916    0.33363   1.00
C3       0.53336    1.01078    0.16595   1.00
C5       0.46415    1.06584    0.27228   1.00
H1       0.44063    0.98024    0.22309   1.00
H1       0.47015    1.05454    0.35021   1.00
H1       0.44057    0.98032    0.15099   1.00
H1       0.52984    0.94497    0.34901   1.00
H1       0.55910    1.01932    0.14979   1.00
C5       0.57120    1.02345    0.22772   1.00
H1       0.52975    0.94495    0.27691   1.00
H2       0.58940    1.04099    0.20744   1.00
H2       0.56431    1.04292    0.25269   1.00
H2       0.46290    1.09108    0.29256   1.00
H2       0.48250    1.07531    0.24731   1.00
N1       0.59336    0.98961    0.24143   1.00
C6       0.61048    0.96248    0.21927   1.00
C6       0.60128    0.98055    0.27846   1.00
C6       0.62913    0.93546    0.24241   1.00
C6       0.62329    0.94695    0.28005   1.00
H3       0.60927    0.96203    0.18803   1.00
H3       0.59141    0.99715    0.30300   1.00
H3       0.64522    0.91021    0.23287   1.00
H3       0.63387    0.93243    0.30575   1.00
N1       0.42483    1.05634    0.25857   1.00
C6       0.41286    1.05516    0.22154   1.00
C6       0.39379    1.04829    0.28073   1.00
C6       0.37382    1.04574    0.21995   1.00
C6       0.36169    1.04136    0.25759   1.00
H3       0.43142    1.06051    0.19700   1.00
H3       0.39436    1.04713    0.31197   1.00
H3       0.35616    1.04240    0.19425   1.00
H3       0.33268    1.03398    0.26713   1.00
C4       0.99982    0.49993    0.72915   1.00
C4       1.00018    0.50007    0.77085   1.00
C3a      0.98264    0.46877    0.70746   1.00
C3       0.96688    0.51125    0.79232   1.00
C3       1.01644    0.53087    0.70768   1.00
C3a      1.03403    0.48912    0.79254   1.00
C2       0.99997    0.50007    0.64488   1.00
C2       0.99997    0.50008    0.85512   1.00
C3       0.98306    0.46930    0.66595   1.00
C3       0.96679    0.51112    0.83363   1.00
C3       1.01659    0.53084    0.66637   1.00
C3       1.03336    0.48922    0.83405   1.00
C5       0.96415    0.43416    0.72772   1.00
H1       0.94063    0.51976    0.77691   1.00
H1       0.97015    0.44546    0.64979   1.00
H1       0.94057    0.51968    0.84901   1.00
H1       1.02984    0.55503    0.65099   1.00
H1       1.05910    0.48068    0.85021   1.00
C5       1.07120    0.47655    0.77228   1.00
H1       1.02975    0.55505    0.72309   1.00
H2       1.08940    0.45901    0.79256   1.00
H2       1.06431    0.45708    0.74731   1.00
H2       0.96290    0.40892    0.70744   1.00
H2       0.98250    0.42469    0.75269   1.00
N1       1.09336    0.51039    0.75857   1.00
C6       1.11048    0.53752    0.78073   1.00
C6       1.10128    0.51945    0.72154   1.00
C6       1.12913    0.56454    0.75759   1.00
C6       1.12329    0.55305    0.71995   1.00
H3       1.10927    0.53797    0.81197   1.00
H3       1.09141    0.50285    0.69700   1.00
H3       1.14522    0.58979    0.76713   1.00
H3       1.13387    0.56757    0.69425   1.00
N1       0.92483    0.44366    0.74143   1.00
C6       0.91286    0.44484    0.77846   1.00
C6       0.89379    0.45171    0.71927   1.00
C6       0.87382    0.45426    0.78005   1.00
C6       0.86169    0.45864    0.74241   1.00
H3       0.93142    0.43949    0.80300   1.00
H3       0.89436    0.45287    0.68803   1.00
H3       0.85616    0.45760    0.80575   1.00
H3       0.83268    0.46602    0.73287   1.00
C4       0.99993    0.72915    0.49982   1.00
C4       1.00007    0.77085    0.50018   1.00
C3a      0.96877    0.70746    0.48264   1.00
C3       1.01125    0.79232    0.46688   1.00
C3       1.03087    0.70768    0.51644   1.00
C3a      0.98912    0.79254    0.53403   1.00
C2       1.00007    0.64488    0.49997   1.00
C2       1.00008    0.85512    0.49997   1.00
C3       0.96930    0.66595    0.48306   1.00
C3       1.01112    0.83363    0.46679   1.00
C3       1.03084    0.66637    0.51659   1.00
C3       0.98922    0.83405    0.53336   1.00
C5       0.93416    0.72772    0.46415   1.00
H1       1.01976    0.77691    0.44063   1.00
H1       0.94546    0.64979    0.47015   1.00
H1       1.01968    0.84901    0.44057   1.00
H1       1.05503    0.65099    0.52984   1.00
H1       0.98068    0.85021    0.55910   1.00
C5       0.97655    0.77228    0.57120   1.00
H1       1.05505    0.72309    0.52975   1.00
H2       0.95901    0.79256    0.58940   1.00
H2       0.95708    0.74731    0.56431   1.00
H2       0.90892    0.70744    0.46290   1.00
H2       0.92469    0.75269    0.48250   1.00
N1       1.01039    0.75857    0.59336   1.00
C6       1.03752    0.78073    0.61048   1.00
C6       1.01945    0.72154    0.60128   1.00
C6       1.06454    0.75759    0.62913   1.00
C6       1.05305    0.71995    0.62329   1.00
H3       1.03797    0.81197    0.60927   1.00
H3       1.00285    0.69700    0.59141   1.00
H3       1.08979    0.76713    0.64522   1.00
H3       1.06757    0.69425    0.63387   1.00
N1       0.94366    0.74143    0.42483   1.00
C6       0.94484    0.77846    0.41286   1.00
C6       0.95171    0.71927    0.39379   1.00
C6       0.95426    0.78005    0.37382   1.00
C6       0.95864    0.74241    0.36169   1.00
H3       0.93949    0.80300    0.43142   1.00
H3       0.95287    0.68803    0.39436   1.00
H3       0.95760    0.80575    0.35616   1.00
H3       0.96602    0.73287    0.33268   1.00
C4       0.77085    0.49982    0.50007   1.00
C4       0.72915    0.50018    0.49993   1.00
C3a      0.79254    0.48264    0.53123   1.00
C3       0.70768    0.46688    0.48875   1.00
C3       0.79232    0.51644    0.46913   1.00
C3a      0.70746    0.53403    0.51088   1.00
C2       0.85512    0.49997    0.49993   1.00
C2       0.64488    0.49997    0.49992   1.00
C3       0.83405    0.48306    0.53070   1.00
C3       0.66637    0.46679    0.48888   1.00
C3       0.83363    0.51659    0.46916   1.00
C3       0.66595    0.53336    0.51078   1.00
C5       0.77228    0.46415    0.56584   1.00
H1       0.72309    0.44063    0.48024   1.00
H1       0.85021    0.47015    0.55454   1.00
H1       0.65099    0.44057    0.48032   1.00
H1       0.84901    0.52984    0.44497   1.00
H1       0.64979    0.55910    0.51932   1.00
C5       0.72772    0.57120    0.52345   1.00
H1       0.77691    0.52975    0.44495   1.00
H2       0.70744    0.58940    0.54099   1.00
H2       0.75269    0.56431    0.54292   1.00
H2       0.79256    0.46290    0.59108   1.00
H2       0.74731    0.48250    0.57531   1.00
N1       0.74143    0.59336    0.48961   1.00
C6       0.71927    0.61048    0.46248   1.00
C6       0.77846    0.60128    0.48055   1.00
C6       0.74241    0.62913    0.43546   1.00
C6       0.78005    0.62329    0.44695   1.00
H3       0.68803    0.60927    0.46203   1.00
H3       0.80300    0.59141    0.49715   1.00
H3       0.73287    0.64522    0.41021   1.00
H3       0.80575    0.63387    0.43243   1.00
N1       0.75857    0.42483    0.55634   1.00
C6       0.72154    0.41286    0.55516   1.00
C6       0.78073    0.39379    0.54829   1.00
C6       0.71995    0.37382    0.54574   1.00
C6       0.75759    0.36169    0.54136   1.00
H3       0.69700    0.43142    0.56051   1.00
H3       0.81197    0.39436    0.54713   1.00
H3       0.69425    0.35616    0.54240   1.00
H3       0.76713    0.33268    0.53398   1.00
C4       1.22915    0.49982    0.49993   1.00
C4       1.27085    0.50018    0.50007   1.00
C3a      1.20746    0.48264    0.46877   1.00
C3       1.29232    0.46688    0.51125   1.00
C3       1.20768    0.51644    0.53087   1.00
C3a      1.29254    0.53403    0.48912   1.00
C2       1.14488    0.49997    0.50007   1.00
C2       1.35512    0.49997    0.50008   1.00
C3       1.16595    0.48306    0.46930   1.00
C3       1.33363    0.46679    0.51112   1.00
C3       1.16637    0.51659    0.53084   1.00
C3       1.33405    0.53336    0.48922   1.00
C5       1.22772    0.46415    0.43416   1.00
H1       1.27691    0.44063    0.51976   1.00
H1       1.14979    0.47015    0.44546   1.00
H1       1.34901    0.44057    0.51968   1.00
H1       1.15099    0.52984    0.55503   1.00
H1       1.35021    0.55910    0.48068   1.00
C5       1.27228    0.57120    0.47655   1.00
H1       1.22309    0.52975    0.55505   1.00
H2       1.29256    0.58940    0.45901   1.00
H2       1.24731    0.56431    0.45708   1.00
H2       1.20744    0.46290    0.40892   1.00
H2       1.25269    0.48250    0.42469   1.00
N1       1.25857    0.59336    0.51039   1.00
C6       1.28073    0.61048    0.53752   1.00
C6       1.22154    0.60128    0.51945   1.00
C6       1.25759    0.62913    0.56454   1.00
C6       1.21995    0.62329    0.55305   1.00
H3       1.31197    0.60927    0.53797   1.00
H3       1.19700    0.59141    0.50285   1.00
H3       1.26713    0.64522    0.58979   1.00
H3       1.19425    0.63387    0.56757   1.00
N1       1.24143    0.42483    0.44366   1.00
C6       1.27846    0.41286    0.44484   1.00
C6       1.21927    0.39379    0.45171   1.00
C6       1.28005    0.37382    0.45426   1.00
C6       1.24241    0.36169    0.45864   1.00
H3       1.30300    0.43142    0.43949   1.00
H3       1.18803    0.39436    0.45287   1.00
H3       1.30575    0.35616    0.45760   1.00
H3       1.23287    0.33268    0.46602   1.00
C4       1.00007    0.27085    0.49982   1.00
C4       0.99993    0.22915    0.50018   1.00
C3a      1.03123    0.29254    0.48264   1.00
C3       0.98875    0.20768    0.46688   1.00
C3       0.96913    0.29232    0.51644   1.00
C3a      1.01088    0.20746    0.53403   1.00
C2       0.99993    0.35512    0.49997   1.00
C2       0.99992    0.14488    0.49997   1.00
C3       1.03070    0.33405    0.48306   1.00
C3       0.98888    0.16637    0.46679   1.00
C3       0.96916    0.33363    0.51659   1.00
C3       1.01078    0.16595    0.53336   1.00
C5       1.06584    0.27228    0.46415   1.00
H1       0.98024    0.22309    0.44063   1.00
H1       1.05454    0.35021    0.47015   1.00
H1       0.98032    0.15099    0.44057   1.00
H1       0.94497    0.34901    0.52984   1.00
H1       1.01932    0.14979    0.55910   1.00
C5       1.02345    0.22772    0.57120   1.00
H1       0.94495    0.27691    0.52975   1.00
H2       1.04099    0.20744    0.58940   1.00
H2       1.04292    0.25269    0.56431   1.00
H2       1.09108    0.29256    0.46290   1.00
H2       1.07531    0.24731    0.48250   1.00
N1       0.98961    0.24143    0.59336   1.00
C6       0.96248    0.21927    0.61048   1.00
C6       0.98055    0.27846    0.60128   1.00
C6       0.93546    0.24241    0.62913   1.00
C6       0.94695    0.28005    0.62329   1.00
H3       0.96203    0.18803    0.60927   1.00
H3       0.99715    0.30300    0.59141   1.00
H3       0.91021    0.23287    0.64522   1.00
H3       0.93243    0.30575    0.63387   1.00
N1       1.05634    0.25857    0.42483   1.00
C6       1.05516    0.22154    0.41286   1.00
C6       1.04829    0.28073    0.39379   1.00
C6       1.04574    0.21995    0.37382   1.00
C6       1.04136    0.25759    0.36169   1.00
H3       1.06051    0.19700    0.43142   1.00
H3       1.04713    0.31197    0.39436   1.00
H3       1.04240    0.19425    0.35616   1.00
H3       1.03398    0.26713    0.33268   1.00
C4       0.99982    0.50007    0.27085   1.00
C4       1.00018    0.49993    0.22915   1.00
C3a      0.98264    0.53123    0.29254   1.00
C3       0.96688    0.48875    0.20768   1.00
C3       1.01644    0.46913    0.29232   1.00
C3a      1.03403    0.51088    0.20746   1.00
C2       0.99997    0.49993    0.35512   1.00
C2       0.99997    0.49992    0.14488   1.00
C3       0.98306    0.53070    0.33405   1.00
C3       0.96679    0.48888    0.16637   1.00
C3       1.01659    0.46916    0.33363   1.00
C3       1.03336    0.51078    0.16595   1.00
C5       0.96415    0.56584    0.27228   1.00
H1       0.94063    0.48024    0.22309   1.00
H1       0.97015    0.55454    0.35021   1.00
H1       0.94057    0.48032    0.15099   1.00
H1       1.02984    0.44497    0.34901   1.00
H1       1.05910    0.51932    0.14979   1.00
C5       1.07120    0.52345    0.22772   1.00
H1       1.02975    0.44495    0.27691   1.00
H2       1.08940    0.54099    0.20744   1.00
H2       1.06431    0.54292    0.25269   1.00
H2       0.96290    0.59108    0.29256   1.00
H2       0.98250    0.57531    0.24731   1.00
N1       1.09336    0.48961    0.24143   1.00
C6       1.11048    0.46248    0.21927   1.00
C6       1.10128    0.48055    0.27846   1.00
C6       1.12913    0.43546    0.24241   1.00
C6       1.12329    0.44695    0.28005   1.00
H3       1.10927    0.46203    0.18803   1.00
H3       1.09141    0.49715    0.30300   1.00
H3       1.14522    0.41021    0.23287   1.00
H3       1.13387    0.43243    0.30575   1.00
N1       0.92483    0.55634    0.25857   1.00
C6       0.91286    0.55516    0.22154   1.00
C6       0.89379    0.54829    0.28073   1.00
C6       0.87382    0.54574    0.21995   1.00
C6       0.86169    0.54136    0.25759   1.00
H3       0.93142    0.56051    0.19700   1.00
H3       0.89436    0.54713    0.31197   1.00
H3       0.85616    0.54240    0.19425   1.00
H3       0.83268    0.53398    0.26713   1.00
