data_IRMOF10_SG202_interpen_Ligand11cp_label_n.

_audit_creation_method             'generated by an auxiliary program of Tobunporous'

_symmetry_space_group_name_H-M     'P 1'
_symmetry_Int_Tables_number        1
_symmetry_cell_setting             triclinic

_cell_length_a                    34.2800
_cell_length_b                    34.2800
_cell_length_c                    34.2800
_cell_angle_alpha                 90.0000
_cell_angle_beta                  90.0000
_cell_angle_gamma                 90.0000

loop_
_atom_site_label
_atom_site_fract_x
_atom_site_fract_y
_atom_site_fract_z
_atom_site_occupancy
O1       0.75000    0.75000    0.75000   1.00
Zn1      0.71720    0.78280    0.78280   1.00
Zn1      0.78280    0.71720    0.78280   1.00
Zn1      0.78280    0.78280    0.71720   1.00
Zn1      0.71720    0.71720    0.71720   1.00
O2       0.72650    0.77350    0.83820   1.00
O2       0.72650    0.83820    0.77350   1.00
O2       0.66180    0.77350    0.77350   1.00
O2       0.77350    0.72650    0.83820   1.00
O2       0.83820    0.72650    0.77350   1.00
O2       0.77350    0.66180    0.77350   1.00
O2       0.77350    0.83820    0.72650   1.00
O2       0.83820    0.77350    0.72650   1.00
O2       0.77350    0.77350    0.66180   1.00
O2       0.66180    0.72650    0.72650   1.00
O2       0.72650    0.66180    0.72650   1.00
O2       0.72650    0.72650    0.66180   1.00
C1       0.75000    0.75000    0.85520   1.00
C1       0.75000    0.85520    0.75000   1.00
C1       0.64480    0.75000    0.75000   1.00
C1       0.85520    0.75000    0.75000   1.00
C1       0.75000    0.64480    0.75000   1.00
C1       0.75000    0.75000    0.64480   1.00
O1       0.25000    0.25000    0.75000   1.00
Zn1      0.21720    0.28280    0.78280   1.00
Zn1      0.28280    0.21720    0.78280   1.00
Zn1      0.28280    0.28280    0.71720   1.00
Zn1      0.21720    0.21720    0.71720   1.00
O2       0.22650    0.27350    0.83820   1.00
O2       0.22650    0.33820    0.77350   1.00
O2       0.16180    0.27350    0.77350   1.00
O2       0.27350    0.22650    0.83820   1.00
O2       0.33820    0.22650    0.77350   1.00
O2       0.27350    0.16180    0.77350   1.00
O2       0.27350    0.33820    0.72650   1.00
O2       0.33820    0.27350    0.72650   1.00
O2       0.27350    0.27350    0.66180   1.00
O2       0.16180    0.22650    0.72650   1.00
O2       0.22650    0.16180    0.72650   1.00
O2       0.22650    0.22650    0.66180   1.00
C1       0.25000    0.25000    0.85520   1.00
C1       0.25000    0.35520    0.75000   1.00
C1       0.14480    0.25000    0.75000   1.00
C1       0.35520    0.25000    0.75000   1.00
C1       0.25000    0.14480    0.75000   1.00
C1       0.25000    0.25000    0.64480   1.00
O1       0.25000    0.75000    0.25000   1.00
Zn1      0.21720    0.78280    0.28280   1.00
Zn1      0.28280    0.71720    0.28280   1.00
Zn1      0.28280    0.78280    0.21720   1.00
Zn1      0.21720    0.71720    0.21720   1.00
O2       0.22650    0.77350    0.33820   1.00
O2       0.22650    0.83820    0.27350   1.00
O2       0.16180    0.77350    0.27350   1.00
O2       0.27350    0.72650    0.33820   1.00
O2       0.33820    0.72650    0.27350   1.00
O2       0.27350    0.66180    0.27350   1.00
O2       0.27350    0.83820    0.22650   1.00
O2       0.33820    0.77350    0.22650   1.00
O2       0.27350    0.77350    0.16180   1.00
O2       0.16180    0.72650    0.22650   1.00
O2       0.22650    0.66180    0.22650   1.00
O2       0.22650    0.72650    0.16180   1.00
C1       0.25000    0.75000    0.35520   1.00
C1       0.25000    0.85520    0.25000   1.00
C1       0.14480    0.75000    0.25000   1.00
C1       0.35520    0.75000    0.25000   1.00
C1       0.25000    0.64480    0.25000   1.00
C1       0.25000    0.75000    0.14480   1.00
O1       0.75000    0.25000    0.25000   1.00
Zn1      0.71720    0.28280    0.28280   1.00
Zn1      0.78280    0.21720    0.28280   1.00
Zn1      0.78280    0.28280    0.21720   1.00
Zn1      0.71720    0.21720    0.21720   1.00
O2       0.72650    0.27350    0.33820   1.00
O2       0.72650    0.33820    0.27350   1.00
O2       0.66180    0.27350    0.27350   1.00
O2       0.77350    0.22650    0.33820   1.00
O2       0.83820    0.22650    0.27350   1.00
O2       0.77350    0.16180    0.27350   1.00
O2       0.77350    0.33820    0.22650   1.00
O2       0.83820    0.27350    0.22650   1.00
O2       0.77350    0.27350    0.16180   1.00
O2       0.66180    0.22650    0.22650   1.00
O2       0.72650    0.16180    0.22650   1.00
O2       0.72650    0.22650    0.16180   1.00
C1       0.75000    0.25000    0.35520   1.00
C1       0.75000    0.35520    0.25000   1.00
C1       0.64480    0.25000    0.25000   1.00
C1       0.85520    0.25000    0.25000   1.00
C1       0.75000    0.14480    0.25000   1.00
C1       0.75000    0.25000    0.14480   1.00
O1       0.25000    0.25000    0.25000   1.00
Zn1      0.28280    0.21720    0.21720   1.00
Zn1      0.21720    0.28280    0.21720   1.00
Zn1      0.21720    0.21720    0.28280   1.00
Zn1      0.28280    0.28280    0.28280   1.00
O2       0.27350    0.22650    0.16180   1.00
O2       0.27350    0.16180    0.22650   1.00
O2       0.33820    0.22650    0.22650   1.00
O2       0.22650    0.27350    0.16180   1.00
O2       0.16180    0.27350    0.22650   1.00
O2       0.22650    0.33820    0.22650   1.00
O2       0.22650    0.16180    0.27350   1.00
O2       0.16180    0.22650    0.27350   1.00
O2       0.22650    0.22650    0.33820   1.00
O2       0.33820    0.27350    0.27350   1.00
O2       0.27350    0.33820    0.27350   1.00
O2       0.27350    0.27350    0.33820   1.00
C1       0.25000    0.25000    0.14480   1.00
C1       0.25000    0.14480    0.25000   1.00
C1       0.35520    0.25000    0.25000   1.00
C1       0.14480    0.25000    0.25000   1.00
C1       0.25000    0.35520    0.25000   1.00
C1       0.25000    0.25000    0.35520   1.00
O1       0.75000    0.75000    0.25000   1.00
Zn1      0.78280    0.71720    0.21720   1.00
Zn1      0.71720    0.78280    0.21720   1.00
Zn1      0.71720    0.71720    0.28280   1.00
Zn1      0.78280    0.78280    0.28280   1.00
O2       0.77350    0.72650    0.16180   1.00
O2       0.77350    0.66180    0.22650   1.00
O2       0.83820    0.72650    0.22650   1.00
O2       0.72650    0.77350    0.16180   1.00
O2       0.66180    0.77350    0.22650   1.00
O2       0.72650    0.83820    0.22650   1.00
O2       0.72650    0.66180    0.27350   1.00
O2       0.66180    0.72650    0.27350   1.00
O2       0.72650    0.72650    0.33820   1.00
O2       0.83820    0.77350    0.27350   1.00
O2       0.77350    0.83820    0.27350   1.00
O2       0.77350    0.77350    0.33820   1.00
C1       0.75000    0.75000    0.14480   1.00
C1       0.75000    0.64480    0.25000   1.00
C1       0.85520    0.75000    0.25000   1.00
C1       0.64480    0.75000    0.25000   1.00
C1       0.75000    0.85520    0.25000   1.00
C1       0.75000    0.75000    0.35520   1.00
O1       0.75000    0.25000    0.75000   1.00
Zn1      0.78280    0.21720    0.71720   1.00
Zn1      0.71720    0.28280    0.71720   1.00
Zn1      0.71720    0.21720    0.78280   1.00
Zn1      0.78280    0.28280    0.78280   1.00
O2       0.77350    0.22650    0.66180   1.00
O2       0.77350    0.16180    0.72650   1.00
O2       0.83820    0.22650    0.72650   1.00
O2       0.72650    0.27350    0.66180   1.00
O2       0.66180    0.27350    0.72650   1.00
O2       0.72650    0.33820    0.72650   1.00
O2       0.72650    0.16180    0.77350   1.00
O2       0.66180    0.22650    0.77350   1.00
O2       0.72650    0.22650    0.83820   1.00
O2       0.83820    0.27350    0.77350   1.00
O2       0.77350    0.33820    0.77350   1.00
O2       0.77350    0.27350    0.83820   1.00
C1       0.75000    0.25000    0.64480   1.00
C1       0.75000    0.14480    0.75000   1.00
C1       0.85520    0.25000    0.75000   1.00
C1       0.64480    0.25000    0.75000   1.00
C1       0.75000    0.35520    0.75000   1.00
C1       0.75000    0.25000    0.85520   1.00
O1       0.25000    0.75000    0.75000   1.00
Zn1      0.28280    0.71720    0.71720   1.00
Zn1      0.21720    0.78280    0.71720   1.00
Zn1      0.21720    0.71720    0.78280   1.00
Zn1      0.28280    0.78280    0.78280   1.00
O2       0.27350    0.72650    0.66180   1.00
O2       0.27350    0.66180    0.72650   1.00
O2       0.33820    0.72650    0.72650   1.00
O2       0.22650    0.77350    0.66180   1.00
O2       0.16180    0.77350    0.72650   1.00
O2       0.22650    0.83820    0.72650   1.00
O2       0.22650    0.66180    0.77350   1.00
O2       0.16180    0.72650    0.77350   1.00
O2       0.22650    0.72650    0.83820   1.00
O2       0.33820    0.77350    0.77350   1.00
O2       0.27350    0.83820    0.77350   1.00
O2       0.27350    0.77350    0.83820   1.00
C1       0.25000    0.75000    0.64480   1.00
C1       0.25000    0.64480    0.75000   1.00
C1       0.35520    0.75000    0.75000   1.00
C1       0.14480    0.75000    0.75000   1.00
C1       0.25000    0.85520    0.75000   1.00
C1       0.25000    0.75000    0.85520   1.00
O1       0.91500    0.91500    0.91500   1.00
Zn1      0.88220    0.94780    0.94780   1.00
Zn1      0.94780    0.88220    0.94780   1.00
Zn1      0.94780    0.94780    0.88220   1.00
Zn1      0.88220    0.88220    0.88220   1.00
O2       0.89150    0.93850    1.00320   1.00
O2       0.89150    1.00320    0.93850   1.00
O2       0.82680    0.93850    0.93850   1.00
O2       0.93850    0.89150    1.00320   1.00
O2       1.00320    0.89150    0.93850   1.00
O2       0.93850    0.82680    0.93850   1.00
O2       0.93850    1.00320    0.89150   1.00
O2       1.00320    0.93850    0.89150   1.00
O2       0.93850    0.93850    0.82680   1.00
O2       0.82680    0.89150    0.89150   1.00
O2       0.89150    0.82680    0.89150   1.00
O2       0.89150    0.89150    0.82680   1.00
C1       0.91500    0.91500    1.02020   1.00
C1       0.91500    1.02020    0.91500   1.00
C1       0.80980    0.91500    0.91500   1.00
C1       1.02020    0.91500    0.91500   1.00
C1       0.91500    0.80980    0.91500   1.00
C1       0.91500    0.91500    0.80980   1.00
O1       0.41500    0.41500    0.91500   1.00
Zn1      0.38220    0.44780    0.94780   1.00
Zn1      0.44780    0.38220    0.94780   1.00
Zn1      0.44780    0.44780    0.88220   1.00
Zn1      0.38220    0.38220    0.88220   1.00
O2       0.39150    0.43850    1.00320   1.00
O2       0.39150    0.50320    0.93850   1.00
O2       0.32680    0.43850    0.93850   1.00
O2       0.43850    0.39150    1.00320   1.00
O2       0.50320    0.39150    0.93850   1.00
O2       0.43850    0.32680    0.93850   1.00
O2       0.43850    0.50320    0.89150   1.00
O2       0.50320    0.43850    0.89150   1.00
O2       0.43850    0.43850    0.82680   1.00
O2       0.32680    0.39150    0.89150   1.00
O2       0.39150    0.32680    0.89150   1.00
O2       0.39150    0.39150    0.82680   1.00
C1       0.41500    0.41500    1.02020   1.00
C1       0.41500    0.52020    0.91500   1.00
C1       0.30980    0.41500    0.91500   1.00
C1       0.52020    0.41500    0.91500   1.00
C1       0.41500    0.30980    0.91500   1.00
C1       0.41500    0.41500    0.80980   1.00
O1       0.41500    0.91500    0.41500   1.00
Zn1      0.38220    0.94780    0.44780   1.00
Zn1      0.44780    0.88220    0.44780   1.00
Zn1      0.44780    0.94780    0.38220   1.00
Zn1      0.38220    0.88220    0.38220   1.00
O2       0.39150    0.93850    0.50320   1.00
O2       0.39150    1.00320    0.43850   1.00
O2       0.32680    0.93850    0.43850   1.00
O2       0.43850    0.89150    0.50320   1.00
O2       0.50320    0.89150    0.43850   1.00
O2       0.43850    0.82680    0.43850   1.00
O2       0.43850    1.00320    0.39150   1.00
O2       0.50320    0.93850    0.39150   1.00
O2       0.43850    0.93850    0.32680   1.00
O2       0.32680    0.89150    0.39150   1.00
O2       0.39150    0.82680    0.39150   1.00
O2       0.39150    0.89150    0.32680   1.00
C1       0.41500    0.91500    0.52020   1.00
C1       0.41500    1.02020    0.41500   1.00
C1       0.30980    0.91500    0.41500   1.00
C1       0.52020    0.91500    0.41500   1.00
C1       0.41500    0.80980    0.41500   1.00
C1       0.41500    0.91500    0.30980   1.00
O1       0.91500    0.41500    0.41500   1.00
Zn1      0.88220    0.44780    0.44780   1.00
Zn1      0.94780    0.38220    0.44780   1.00
Zn1      0.94780    0.44780    0.38220   1.00
Zn1      0.88220    0.38220    0.38220   1.00
O2       0.89150    0.43850    0.50320   1.00
O2       0.89150    0.50320    0.43850   1.00
O2       0.82680    0.43850    0.43850   1.00
O2       0.93850    0.39150    0.50320   1.00
O2       1.00320    0.39150    0.43850   1.00
O2       0.93850    0.32680    0.43850   1.00
O2       0.93850    0.50320    0.39150   1.00
O2       1.00320    0.43850    0.39150   1.00
O2       0.93850    0.43850    0.32680   1.00
O2       0.82680    0.39150    0.39150   1.00
O2       0.89150    0.32680    0.39150   1.00
O2       0.89150    0.39150    0.32680   1.00
C1       0.91500    0.41500    0.52020   1.00
C1       0.91500    0.52020    0.41500   1.00
C1       0.80980    0.41500    0.41500   1.00
C1       1.02020    0.41500    0.41500   1.00
C1       0.91500    0.30980    0.41500   1.00
C1       0.91500    0.41500    0.30980   1.00
O1       0.41500    0.41500    0.41500   1.00
Zn1      0.44780    0.38220    0.38220   1.00
Zn1      0.38220    0.44780    0.38220   1.00
Zn1      0.38220    0.38220    0.44780   1.00
Zn1      0.44780    0.44780    0.44780   1.00
O2       0.43850    0.39150    0.32680   1.00
O2       0.43850    0.32680    0.39150   1.00
O2       0.50320    0.39150    0.39150   1.00
O2       0.39150    0.43850    0.32680   1.00
O2       0.32680    0.43850    0.39150   1.00
O2       0.39150    0.50320    0.39150   1.00
O2       0.39150    0.32680    0.43850   1.00
O2       0.32680    0.39150    0.43850   1.00
O2       0.39150    0.39150    0.50320   1.00
O2       0.50320    0.43850    0.43850   1.00
O2       0.43850    0.50320    0.43850   1.00
O2       0.43850    0.43850    0.50320   1.00
C1       0.41500    0.41500    0.30980   1.00
C1       0.41500    0.30980    0.41500   1.00
C1       0.52020    0.41500    0.41500   1.00
C1       0.30980    0.41500    0.41500   1.00
C1       0.41500    0.52020    0.41500   1.00
C1       0.41500    0.41500    0.52020   1.00
O1       0.91500    0.91500    0.41500   1.00
Zn1      0.94780    0.88220    0.38220   1.00
Zn1      0.88220    0.94780    0.38220   1.00
Zn1      0.88220    0.88220    0.44780   1.00
Zn1      0.94780    0.94780    0.44780   1.00
O2       0.93850    0.89150    0.32680   1.00
O2       0.93850    0.82680    0.39150   1.00
O2       1.00320    0.89150    0.39150   1.00
O2       0.89150    0.93850    0.32680   1.00
O2       0.82680    0.93850    0.39150   1.00
O2       0.89150    1.00320    0.39150   1.00
O2       0.89150    0.82680    0.43850   1.00
O2       0.82680    0.89150    0.43850   1.00
O2       0.89150    0.89150    0.50320   1.00
O2       1.00320    0.93850    0.43850   1.00
O2       0.93850    1.00320    0.43850   1.00
O2       0.93850    0.93850    0.50320   1.00
C1       0.91500    0.91500    0.30980   1.00
C1       0.91500    0.80980    0.41500   1.00
C1       1.02020    0.91500    0.41500   1.00
C1       0.80980    0.91500    0.41500   1.00
C1       0.91500    1.02020    0.41500   1.00
C1       0.91500    0.91500    0.52020   1.00
O1       0.91500    0.41500    0.91500   1.00
Zn1      0.94780    0.38220    0.88220   1.00
Zn1      0.88220    0.44780    0.88220   1.00
Zn1      0.88220    0.38220    0.94780   1.00
Zn1      0.94780    0.44780    0.94780   1.00
O2       0.93850    0.39150    0.82680   1.00
O2       0.93850    0.32680    0.89150   1.00
O2       1.00320    0.39150    0.89150   1.00
O2       0.89150    0.43850    0.82680   1.00
O2       0.82680    0.43850    0.89150   1.00
O2       0.89150    0.50320    0.89150   1.00
O2       0.89150    0.32680    0.93850   1.00
O2       0.82680    0.39150    0.93850   1.00
O2       0.89150    0.39150    1.00320   1.00
O2       1.00320    0.43850    0.93850   1.00
O2       0.93850    0.50320    0.93850   1.00
O2       0.93850    0.43850    1.00320   1.00
C1       0.91500    0.41500    0.80980   1.00
C1       0.91500    0.30980    0.91500   1.00
C1       1.02020    0.41500    0.91500   1.00
C1       0.80980    0.41500    0.91500   1.00
C1       0.91500    0.52020    0.91500   1.00
C1       0.91500    0.41500    1.02020   1.00
O1       0.41500    0.91500    0.91500   1.00
Zn1      0.44780    0.88220    0.88220   1.00
Zn1      0.38220    0.94780    0.88220   1.00
Zn1      0.38220    0.88220    0.94780   1.00
Zn1      0.44780    0.94780    0.94780   1.00
O2       0.43850    0.89150    0.82680   1.00
O2       0.43850    0.82680    0.89150   1.00
O2       0.50320    0.89150    0.89150   1.00
O2       0.39150    0.93850    0.82680   1.00
O2       0.32680    0.93850    0.89150   1.00
O2       0.39150    1.00320    0.89150   1.00
O2       0.39150    0.82680    0.93850   1.00
O2       0.32680    0.89150    0.93850   1.00
O2       0.39150    0.89150    1.00320   1.00
O2       0.50320    0.93850    0.93850   1.00
O2       0.43850    1.00320    0.93850   1.00
O2       0.43850    0.93850    1.00320   1.00
C1       0.41500    0.91500    0.80980   1.00
C1       0.41500    0.80980    0.91500   1.00
C1       0.52020    0.91500    0.91500   1.00
C1       0.30980    0.91500    0.91500   1.00
C1       0.41500    1.02020    0.91500   1.00
C1       0.41500    0.91500    1.02020   1.00
C4       0.74992    0.74982    0.97915   1.00
C4       0.75008    0.75018    1.02085   1.00
C3a      0.75981    0.71564    0.95746   1.00
C3       0.71863    0.73454    1.04232   1.00
C3       0.73979    0.78345    0.95768   1.00
C3a      0.78176    0.76637    1.04254   1.00
C2       0.74992    0.75003    0.89488   1.00
C2       0.74993    0.75004    1.10512   1.00
C3       0.75973    0.71632    0.91595   1.00
C3       0.71865    0.73438    1.08363   1.00
C3       0.73992    0.78354    0.91637   1.00
C3       0.78121    0.76597    1.08405   1.00
C5       0.77120    0.67810    0.97772   1.00
H1       0.69405    0.72199    1.02691   1.00
H1       0.76746    0.69032    0.89979   1.00
H1       0.69406    0.72190    1.09901   1.00
H1       0.73219    0.81002    0.90099   1.00
H1       0.80545    0.77813    1.10021   1.00
C5       0.81693    0.78377    1.02228   1.00
H1       0.73211    0.80996    0.97309   1.00
H2       0.84220    0.78423    1.04256   1.00
H2       0.82582    0.76513    0.99731   1.00
H2       0.78817    0.65936    0.95744   1.00
H2       0.79088    0.68437    1.00269   1.00
N1       0.80867    0.82336    1.00857   1.00
C6       0.80159    0.85465    1.03073   1.00
C6       0.80786    0.83537    0.97154   1.00
C6       0.79567    0.88695    1.00759   1.00
C6       0.79967    0.87469    0.96995   1.00
H3       0.80042    0.85412    1.06197   1.00
H3       0.81263    0.81665    0.94700   1.00
H3       0.78920    0.91618    1.01713   1.00
H3       0.79689    0.89244    0.94425   1.00
N1       0.73669    0.65701    0.99143   1.00
C6       0.72739    0.64938    1.02846   1.00
C6       0.70904    0.64075    0.96927   1.00
C6       0.69312    0.62843    1.03005   1.00
C6       0.68144    0.62295    0.99241   1.00
H3       0.74429    0.65872    1.05300   1.00
H3       0.70862    0.64197    0.93803   1.00
H3       0.67827    0.61831    1.05575   1.00
H3       0.65571    0.60766    0.98287   1.00
C4       0.74982    0.97915    0.74992   1.00
C4       0.75018    1.02085    0.75008   1.00
C3a      0.71564    0.95746    0.75981   1.00
C3       0.73454    1.04232    0.71863   1.00
C3       0.78345    0.95768    0.73979   1.00
C3a      0.76637    1.04254    0.78176   1.00
C2       0.75003    0.89488    0.74992   1.00
C2       0.75004    1.10512    0.74993   1.00
C3       0.71632    0.91595    0.75973   1.00
C3       0.73438    1.08363    0.71865   1.00
C3       0.78354    0.91637    0.73992   1.00
C3       0.76597    1.08405    0.78121   1.00
C5       0.67810    0.97772    0.77120   1.00
H1       0.72199    1.02691    0.69405   1.00
H1       0.69032    0.89979    0.76746   1.00
H1       0.72190    1.09901    0.69406   1.00
H1       0.81002    0.90099    0.73219   1.00
H1       0.77813    1.10021    0.80545   1.00
C5       0.78377    1.02228    0.81693   1.00
H1       0.80996    0.97309    0.73211   1.00
H2       0.78423    1.04256    0.84220   1.00
H2       0.76513    0.99731    0.82582   1.00
H2       0.65936    0.95744    0.78817   1.00
H2       0.68437    1.00269    0.79088   1.00
N1       0.82336    1.00857    0.80867   1.00
C6       0.85465    1.03073    0.80159   1.00
C6       0.83537    0.97154    0.80786   1.00
C6       0.88695    1.00759    0.79567   1.00
C6       0.87469    0.96995    0.79967   1.00
H3       0.85412    1.06197    0.80042   1.00
H3       0.81665    0.94700    0.81263   1.00
H3       0.91618    1.01713    0.78920   1.00
H3       0.89244    0.94425    0.79689   1.00
N1       0.65701    0.99143    0.73669   1.00
C6       0.64938    1.02846    0.72739   1.00
C6       0.64075    0.96927    0.70904   1.00
C6       0.62843    1.03005    0.69312   1.00
C6       0.62295    0.99241    0.68144   1.00
H3       0.65872    1.05300    0.74429   1.00
H3       0.64197    0.93803    0.70862   1.00
H3       0.61831    1.05575    0.67827   1.00
H3       0.60766    0.98287    0.65571   1.00
C4       0.52085    0.74992    0.75018   1.00
C4       0.47915    0.75008    0.74982   1.00
C3a      0.54254    0.75981    0.78436   1.00
C3       0.45768    0.71863    0.76546   1.00
C3       0.54232    0.73979    0.71655   1.00
C3a      0.45746    0.78176    0.73363   1.00
C2       0.60512    0.74992    0.74997   1.00
C2       0.39488    0.74993    0.74996   1.00
C3       0.58405    0.75973    0.78368   1.00
C3       0.41637    0.71865    0.76562   1.00
C3       0.58363    0.73992    0.71646   1.00
C3       0.41595    0.78121    0.73403   1.00
C5       0.52228    0.77120    0.82190   1.00
H1       0.47309    0.69405    0.77801   1.00
H1       0.60021    0.76746    0.80968   1.00
H1       0.40099    0.69406    0.77810   1.00
H1       0.59901    0.73219    0.68998   1.00
H1       0.39979    0.80545    0.72187   1.00
C5       0.47772    0.81693    0.71623   1.00
H1       0.52691    0.73211    0.69004   1.00
H2       0.45744    0.84220    0.71577   1.00
H2       0.50269    0.82582    0.73487   1.00
H2       0.54256    0.78817    0.84064   1.00
H2       0.49731    0.79088    0.81563   1.00
N1       0.49143    0.80867    0.67664   1.00
C6       0.46927    0.80159    0.64535   1.00
C6       0.52846    0.80786    0.66463   1.00
C6       0.49241    0.79567    0.61305   1.00
C6       0.53005    0.79967    0.62531   1.00
H3       0.43803    0.80042    0.64588   1.00
H3       0.55300    0.81263    0.68335   1.00
H3       0.48287    0.78920    0.58382   1.00
H3       0.55575    0.79689    0.60756   1.00
N1       0.50857    0.73669    0.84299   1.00
C6       0.47154    0.72739    0.85062   1.00
C6       0.53073    0.70904    0.85925   1.00
C6       0.46995    0.69312    0.87157   1.00
C6       0.50759    0.68144    0.87705   1.00
H3       0.44700    0.74429    0.84128   1.00
H3       0.56197    0.70862    0.85803   1.00
H3       0.44425    0.67827    0.88169   1.00
H3       0.51713    0.65571    0.89234   1.00
C4       0.97915    0.74992    0.74982   1.00
C4       1.02085    0.75008    0.75018   1.00
C3a      0.95746    0.75981    0.71564   1.00
C3       1.04232    0.71863    0.73454   1.00
C3       0.95768    0.73979    0.78345   1.00
C3a      1.04254    0.78176    0.76637   1.00
C2       0.89488    0.74992    0.75003   1.00
C2       1.10512    0.74993    0.75004   1.00
C3       0.91595    0.75973    0.71632   1.00
C3       1.08363    0.71865    0.73438   1.00
C3       0.91637    0.73992    0.78354   1.00
C3       1.08405    0.78121    0.76597   1.00
C5       0.97772    0.77120    0.67810   1.00
H1       1.02691    0.69405    0.72199   1.00
H1       0.89979    0.76746    0.69032   1.00
H1       1.09901    0.69406    0.72190   1.00
H1       0.90099    0.73219    0.81002   1.00
H1       1.10021    0.80545    0.77813   1.00
C5       1.02228    0.81693    0.78377   1.00
H1       0.97309    0.73211    0.80996   1.00
H2       1.04256    0.84220    0.78423   1.00
H2       0.99731    0.82582    0.76513   1.00
H2       0.95744    0.78817    0.65936   1.00
H2       1.00269    0.79088    0.68437   1.00
N1       1.00857    0.80867    0.82336   1.00
C6       1.03073    0.80159    0.85465   1.00
C6       0.97154    0.80786    0.83537   1.00
C6       1.00759    0.79567    0.88695   1.00
C6       0.96995    0.79967    0.87469   1.00
H3       1.06197    0.80042    0.85412   1.00
H3       0.94700    0.81263    0.81665   1.00
H3       1.01713    0.78920    0.91618   1.00
H3       0.94425    0.79689    0.89244   1.00
N1       0.99143    0.73669    0.65701   1.00
C6       1.02846    0.72739    0.64938   1.00
C6       0.96927    0.70904    0.64075   1.00
C6       1.03005    0.69312    0.62843   1.00
C6       0.99241    0.68144    0.62295   1.00
H3       1.05300    0.74429    0.65872   1.00
H3       0.93803    0.70862    0.64197   1.00
H3       1.05575    0.67827    0.61831   1.00
H3       0.98287    0.65571    0.60766   1.00
C4       0.75018    0.52085    0.74992   1.00
C4       0.74982    0.47915    0.75008   1.00
C3a      0.78436    0.54254    0.75981   1.00
C3       0.76546    0.45768    0.71863   1.00
C3       0.71655    0.54232    0.73979   1.00
C3a      0.73363    0.45746    0.78176   1.00
C2       0.74997    0.60512    0.74992   1.00
C2       0.74996    0.39488    0.74993   1.00
C3       0.78368    0.58405    0.75973   1.00
C3       0.76562    0.41637    0.71865   1.00
C3       0.71646    0.58363    0.73992   1.00
C3       0.73403    0.41595    0.78121   1.00
C5       0.82190    0.52228    0.77120   1.00
H1       0.77801    0.47309    0.69405   1.00
H1       0.80968    0.60021    0.76746   1.00
H1       0.77810    0.40099    0.69406   1.00
H1       0.68998    0.59901    0.73219   1.00
H1       0.72187    0.39979    0.80545   1.00
C5       0.71623    0.47772    0.81693   1.00
H1       0.69004    0.52691    0.73211   1.00
H2       0.71577    0.45744    0.84220   1.00
H2       0.73487    0.50269    0.82582   1.00
H2       0.84064    0.54256    0.78817   1.00
H2       0.81563    0.49731    0.79088   1.00
N1       0.67664    0.49143    0.80867   1.00
C6       0.64535    0.46927    0.80159   1.00
C6       0.66463    0.52846    0.80786   1.00
C6       0.61305    0.49241    0.79567   1.00
C6       0.62531    0.53005    0.79967   1.00
H3       0.64588    0.43803    0.80042   1.00
H3       0.68335    0.55300    0.81263   1.00
H3       0.58382    0.48287    0.78920   1.00
H3       0.60756    0.55575    0.79689   1.00
N1       0.84299    0.50857    0.73669   1.00
C6       0.85062    0.47154    0.72739   1.00
C6       0.85925    0.53073    0.70904   1.00
C6       0.87157    0.46995    0.69312   1.00
C6       0.87705    0.50759    0.68144   1.00
H3       0.84128    0.44700    0.74429   1.00
H3       0.85803    0.56197    0.70862   1.00
H3       0.88169    0.44425    0.67827   1.00
H3       0.89234    0.51713    0.65571   1.00
C4       0.74992    0.75018    0.52085   1.00
C4       0.75008    0.74982    0.47915   1.00
C3a      0.75981    0.78436    0.54254   1.00
C3       0.71863    0.76546    0.45768   1.00
C3       0.73979    0.71655    0.54232   1.00
C3a      0.78176    0.73363    0.45746   1.00
C2       0.74992    0.74997    0.60512   1.00
C2       0.74993    0.74996    0.39488   1.00
C3       0.75973    0.78368    0.58405   1.00
C3       0.71865    0.76562    0.41637   1.00
C3       0.73992    0.71646    0.58363   1.00
C3       0.78121    0.73403    0.41595   1.00
C5       0.77120    0.82190    0.52228   1.00
H1       0.69405    0.77801    0.47309   1.00
H1       0.76746    0.80968    0.60021   1.00
H1       0.69406    0.77810    0.40099   1.00
H1       0.73219    0.68998    0.59901   1.00
H1       0.80545    0.72187    0.39979   1.00
C5       0.81693    0.71623    0.47772   1.00
H1       0.73211    0.69004    0.52691   1.00
H2       0.84220    0.71577    0.45744   1.00
H2       0.82582    0.73487    0.50269   1.00
H2       0.78817    0.84064    0.54256   1.00
H2       0.79088    0.81563    0.49731   1.00
N1       0.80867    0.67664    0.49143   1.00
C6       0.80159    0.64535    0.46927   1.00
C6       0.80786    0.66463    0.52846   1.00
C6       0.79567    0.61305    0.49241   1.00
C6       0.79967    0.62531    0.53005   1.00
H3       0.80042    0.64588    0.43803   1.00
H3       0.81263    0.68335    0.55300   1.00
H3       0.78920    0.58382    0.48287   1.00
H3       0.79689    0.60756    0.55575   1.00
N1       0.73669    0.84299    0.50857   1.00
C6       0.72739    0.85062    0.47154   1.00
C6       0.70904    0.85925    0.53073   1.00
C6       0.69312    0.87157    0.46995   1.00
C6       0.68144    0.87705    0.50759   1.00
H3       0.74429    0.84128    0.44700   1.00
H3       0.70862    0.85803    0.56197   1.00
H3       0.67827    0.88169    0.44425   1.00
H3       0.65571    0.89234    0.51713   1.00
C4       0.24992    0.24982    0.97915   1.00
C4       0.25008    0.25018    1.02085   1.00
C3a      0.25981    0.21564    0.95746   1.00
C3       0.21863    0.23454    1.04232   1.00
C3       0.23979    0.28345    0.95768   1.00
C3a      0.28176    0.26637    1.04254   1.00
C2       0.24992    0.25003    0.89488   1.00
C2       0.24993    0.25004    1.10512   1.00
C3       0.25973    0.21632    0.91595   1.00
C3       0.21865    0.23438    1.08363   1.00
C3       0.23992    0.28354    0.91637   1.00
C3       0.28121    0.26597    1.08405   1.00
C5       0.27120    0.17810    0.97772   1.00
H1       0.19405    0.22199    1.02691   1.00
H1       0.26746    0.19032    0.89979   1.00
H1       0.19406    0.22190    1.09901   1.00
H1       0.23219    0.31002    0.90099   1.00
H1       0.30545    0.27813    1.10021   1.00
C5       0.31693    0.28377    1.02228   1.00
H1       0.23211    0.30996    0.97309   1.00
H2       0.34220    0.28423    1.04256   1.00
H2       0.32582    0.26513    0.99731   1.00
H2       0.28817    0.15936    0.95744   1.00
H2       0.29088    0.18437    1.00269   1.00
N1       0.30867    0.32336    1.00857   1.00
C6       0.30159    0.35465    1.03073   1.00
C6       0.30786    0.33537    0.97154   1.00
C6       0.29567    0.38695    1.00759   1.00
C6       0.29967    0.37469    0.96995   1.00
H3       0.30042    0.35412    1.06197   1.00
H3       0.31263    0.31665    0.94700   1.00
H3       0.28920    0.41618    1.01713   1.00
H3       0.29689    0.39244    0.94425   1.00
N1       0.23669    0.15701    0.99143   1.00
C6       0.22739    0.14938    1.02846   1.00
C6       0.20904    0.14075    0.96927   1.00
C6       0.19312    0.12843    1.03005   1.00
C6       0.18144    0.12295    0.99241   1.00
H3       0.24429    0.15872    1.05300   1.00
H3       0.20862    0.14197    0.93803   1.00
H3       0.17827    0.11831    1.05575   1.00
H3       0.15571    0.10766    0.98287   1.00
C4       0.24982    0.47915    0.74992   1.00
C4       0.25018    0.52085    0.75008   1.00
C3a      0.21564    0.45746    0.75981   1.00
C3       0.23454    0.54232    0.71863   1.00
C3       0.28345    0.45768    0.73979   1.00
C3a      0.26637    0.54254    0.78176   1.00
C2       0.25003    0.39488    0.74992   1.00
C2       0.25004    0.60512    0.74993   1.00
C3       0.21632    0.41595    0.75973   1.00
C3       0.23438    0.58363    0.71865   1.00
C3       0.28354    0.41637    0.73992   1.00
C3       0.26597    0.58405    0.78121   1.00
C5       0.17810    0.47772    0.77120   1.00
H1       0.22199    0.52691    0.69405   1.00
H1       0.19032    0.39979    0.76746   1.00
H1       0.22190    0.59901    0.69406   1.00
H1       0.31002    0.40099    0.73219   1.00
H1       0.27813    0.60021    0.80545   1.00
C5       0.28377    0.52228    0.81693   1.00
H1       0.30996    0.47309    0.73211   1.00
H2       0.28423    0.54256    0.84220   1.00
H2       0.26513    0.49731    0.82582   1.00
H2       0.15936    0.45744    0.78817   1.00
H2       0.18437    0.50269    0.79088   1.00
N1       0.32336    0.50857    0.80867   1.00
C6       0.35465    0.53073    0.80159   1.00
C6       0.33537    0.47154    0.80786   1.00
C6       0.38695    0.50759    0.79567   1.00
C6       0.37469    0.46995    0.79967   1.00
H3       0.35412    0.56197    0.80042   1.00
H3       0.31665    0.44700    0.81263   1.00
H3       0.41618    0.51713    0.78920   1.00
H3       0.39244    0.44425    0.79689   1.00
N1       0.15701    0.49143    0.73669   1.00
C6       0.14938    0.52846    0.72739   1.00
C6       0.14075    0.46927    0.70904   1.00
C6       0.12843    0.53005    0.69312   1.00
C6       0.12295    0.49241    0.68144   1.00
H3       0.15872    0.55300    0.74429   1.00
H3       0.14197    0.43803    0.70862   1.00
H3       0.11831    0.55575    0.67827   1.00
H3       0.10766    0.48287    0.65571   1.00
C4       0.02085    0.24992    0.75018   1.00
C4       -0.02085   0.25008    0.74982   1.00
C3a      0.04254    0.25981    0.78436   1.00
C3       -0.04232   0.21863    0.76546   1.00
C3       0.04232    0.23979    0.71655   1.00
C3a      -0.04254   0.28176    0.73363   1.00
C2       0.10512    0.24992    0.74997   1.00
C2       -0.10512   0.24993    0.74996   1.00
C3       0.08405    0.25973    0.78368   1.00
C3       -0.08363   0.21865    0.76562   1.00
C3       0.08363    0.23992    0.71646   1.00
C3       -0.08405   0.28121    0.73403   1.00
C5       0.02228    0.27120    0.82190   1.00
H1       -0.02691   0.19405    0.77801   1.00
H1       0.10021    0.26746    0.80968   1.00
H1       -0.09901   0.19406    0.77810   1.00
H1       0.09901    0.23219    0.68998   1.00
H1       -0.10021   0.30545    0.72187   1.00
C5       -0.02228   0.31693    0.71623   1.00
H1       0.02691    0.23211    0.69004   1.00
H2       -0.04256   0.34220    0.71577   1.00
H2       0.00269    0.32582    0.73487   1.00
H2       0.04256    0.28817    0.84064   1.00
H2       -0.00269   0.29088    0.81563   1.00
N1       -0.00857   0.30867    0.67664   1.00
C6       -0.03073   0.30159    0.64535   1.00
C6       0.02846    0.30786    0.66463   1.00
C6       -0.00759   0.29567    0.61305   1.00
C6       0.03005    0.29967    0.62531   1.00
H3       -0.06197   0.30042    0.64588   1.00
H3       0.05300    0.31263    0.68335   1.00
H3       -0.01713   0.28920    0.58382   1.00
H3       0.05575    0.29689    0.60756   1.00
N1       0.00857    0.23669    0.84299   1.00
C6       -0.02846   0.22739    0.85062   1.00
C6       0.03073    0.20904    0.85925   1.00
C6       -0.03005   0.19312    0.87157   1.00
C6       0.00759    0.18144    0.87705   1.00
H3       -0.05300   0.24429    0.84128   1.00
H3       0.06197    0.20862    0.85803   1.00
H3       -0.05575   0.17827    0.88169   1.00
H3       0.01713    0.15571    0.89234   1.00
C4       0.47915    0.24992    0.74982   1.00
C4       0.52085    0.25008    0.75018   1.00
C3a      0.45746    0.25981    0.71564   1.00
C3       0.54232    0.21863    0.73454   1.00
C3       0.45768    0.23979    0.78345   1.00
C3a      0.54254    0.28176    0.76637   1.00
C2       0.39488    0.24992    0.75003   1.00
C2       0.60512    0.24993    0.75004   1.00
C3       0.41595    0.25973    0.71632   1.00
C3       0.58363    0.21865    0.73438   1.00
C3       0.41637    0.23992    0.78354   1.00
C3       0.58405    0.28121    0.76597   1.00
C5       0.47772    0.27120    0.67810   1.00
H1       0.52691    0.19405    0.72199   1.00
H1       0.39979    0.26746    0.69032   1.00
H1       0.59901    0.19406    0.72190   1.00
H1       0.40099    0.23219    0.81002   1.00
H1       0.60021    0.30545    0.77813   1.00
C5       0.52228    0.31693    0.78377   1.00
H1       0.47309    0.23211    0.80996   1.00
H2       0.54256    0.34220    0.78423   1.00
H2       0.49731    0.32582    0.76513   1.00
H2       0.45744    0.28817    0.65936   1.00
H2       0.50269    0.29088    0.68437   1.00
N1       0.50857    0.30867    0.82336   1.00
C6       0.53073    0.30159    0.85465   1.00
C6       0.47154    0.30786    0.83537   1.00
C6       0.50759    0.29567    0.88695   1.00
C6       0.46995    0.29967    0.87469   1.00
H3       0.56197    0.30042    0.85412   1.00
H3       0.44700    0.31263    0.81665   1.00
H3       0.51713    0.28920    0.91618   1.00
H3       0.44425    0.29689    0.89244   1.00
N1       0.49143    0.23669    0.65701   1.00
C6       0.52846    0.22739    0.64938   1.00
C6       0.46927    0.20904    0.64075   1.00
C6       0.53005    0.19312    0.62843   1.00
C6       0.49241    0.18144    0.62295   1.00
H3       0.55300    0.24429    0.65872   1.00
H3       0.43803    0.20862    0.64197   1.00
H3       0.55575    0.17827    0.61831   1.00
H3       0.48287    0.15571    0.60766   1.00
C4       0.25018    0.02085    0.74992   1.00
C4       0.24982    -0.02085   0.75008   1.00
C3a      0.28436    0.04254    0.75981   1.00
C3       0.26546    -0.04232   0.71863   1.00
C3       0.21655    0.04232    0.73979   1.00
C3a      0.23363    -0.04254   0.78176   1.00
C2       0.24997    0.10512    0.74992   1.00
C2       0.24996    -0.10512   0.74993   1.00
C3       0.28368    0.08405    0.75973   1.00
C3       0.26562    -0.08363   0.71865   1.00
C3       0.21646    0.08363    0.73992   1.00
C3       0.23403    -0.08405   0.78121   1.00
C5       0.32190    0.02228    0.77120   1.00
H1       0.27801    -0.02691   0.69405   1.00
H1       0.30968    0.10021    0.76746   1.00
H1       0.27810    -0.09901   0.69406   1.00
H1       0.18998    0.09901    0.73219   1.00
H1       0.22187    -0.10021   0.80545   1.00
C5       0.21623    -0.02228   0.81693   1.00
H1       0.19004    0.02691    0.73211   1.00
H2       0.21577    -0.04256   0.84220   1.00
H2       0.23487    0.00269    0.82582   1.00
H2       0.34064    0.04256    0.78817   1.00
H2       0.31563    -0.00269   0.79088   1.00
N1       0.17664    -0.00857   0.80867   1.00
C6       0.14535    -0.03073   0.80159   1.00
C6       0.16463    0.02846    0.80786   1.00
C6       0.11305    -0.00759   0.79567   1.00
C6       0.12531    0.03005    0.79967   1.00
H3       0.14588    -0.06197   0.80042   1.00
H3       0.18335    0.05300    0.81263   1.00
H3       0.08382    -0.01713   0.78920   1.00
H3       0.10756    0.05575    0.79689   1.00
N1       0.34299    0.00857    0.73669   1.00
C6       0.35062    -0.02846   0.72739   1.00
C6       0.35925    0.03073    0.70904   1.00
C6       0.37157    -0.03005   0.69312   1.00
C6       0.37705    0.00759    0.68144   1.00
H3       0.34128    -0.05300   0.74429   1.00
H3       0.35803    0.06197    0.70862   1.00
H3       0.38169    -0.05575   0.67827   1.00
H3       0.39234    0.01713    0.65571   1.00
C4       0.24992    0.25018    0.52085   1.00
C4       0.25008    0.24982    0.47915   1.00
C3a      0.25981    0.28436    0.54254   1.00
C3       0.21863    0.26546    0.45768   1.00
C3       0.23979    0.21655    0.54232   1.00
C3a      0.28176    0.23363    0.45746   1.00
C2       0.24992    0.24997    0.60512   1.00
C2       0.24993    0.24996    0.39488   1.00
C3       0.25973    0.28368    0.58405   1.00
C3       0.21865    0.26562    0.41637   1.00
C3       0.23992    0.21646    0.58363   1.00
C3       0.28121    0.23403    0.41595   1.00
C5       0.27120    0.32190    0.52228   1.00
H1       0.19405    0.27801    0.47309   1.00
H1       0.26746    0.30968    0.60021   1.00
H1       0.19406    0.27810    0.40099   1.00
H1       0.23219    0.18998    0.59901   1.00
H1       0.30545    0.22187    0.39979   1.00
C5       0.31693    0.21623    0.47772   1.00
H1       0.23211    0.19004    0.52691   1.00
H2       0.34220    0.21577    0.45744   1.00
H2       0.32582    0.23487    0.50269   1.00
H2       0.28817    0.34064    0.54256   1.00
H2       0.29088    0.31563    0.49731   1.00
N1       0.30867    0.17664    0.49143   1.00
C6       0.30159    0.14535    0.46927   1.00
C6       0.30786    0.16463    0.52846   1.00
C6       0.29567    0.11305    0.49241   1.00
C6       0.29967    0.12531    0.53005   1.00
H3       0.30042    0.14588    0.43803   1.00
H3       0.31263    0.18335    0.55300   1.00
H3       0.28920    0.08382    0.48287   1.00
H3       0.29689    0.10756    0.55575   1.00
N1       0.23669    0.34299    0.50857   1.00
C6       0.22739    0.35062    0.47154   1.00
C6       0.20904    0.35925    0.53073   1.00
C6       0.19312    0.37157    0.46995   1.00
C6       0.18144    0.37705    0.50759   1.00
H3       0.24429    0.34128    0.44700   1.00
H3       0.20862    0.35803    0.56197   1.00
H3       0.17827    0.38169    0.44425   1.00
H3       0.15571    0.39234    0.51713   1.00
C4       0.24992    0.74982    0.47915   1.00
C4       0.25008    0.75018    0.52085   1.00
C3a      0.25981    0.71564    0.45746   1.00
C3       0.21863    0.73454    0.54232   1.00
C3       0.23979    0.78345    0.45768   1.00
C3a      0.28176    0.76637    0.54254   1.00
C2       0.24992    0.75003    0.39488   1.00
C2       0.24993    0.75004    0.60512   1.00
C3       0.25973    0.71632    0.41595   1.00
C3       0.21865    0.73438    0.58363   1.00
C3       0.23992    0.78354    0.41637   1.00
C3       0.28121    0.76597    0.58405   1.00
C5       0.27120    0.67810    0.47772   1.00
H1       0.19405    0.72199    0.52691   1.00
H1       0.26746    0.69032    0.39979   1.00
H1       0.19406    0.72190    0.59901   1.00
H1       0.23219    0.81002    0.40099   1.00
H1       0.30545    0.77813    0.60021   1.00
C5       0.31693    0.78377    0.52228   1.00
H1       0.23211    0.80996    0.47309   1.00
H2       0.34220    0.78423    0.54256   1.00
H2       0.32582    0.76513    0.49731   1.00
H2       0.28817    0.65936    0.45744   1.00
H2       0.29088    0.68437    0.50269   1.00
N1       0.30867    0.82336    0.50857   1.00
C6       0.30159    0.85465    0.53073   1.00
C6       0.30786    0.83537    0.47154   1.00
C6       0.29567    0.88695    0.50759   1.00
C6       0.29967    0.87469    0.46995   1.00
H3       0.30042    0.85412    0.56197   1.00
H3       0.31263    0.81665    0.44700   1.00
H3       0.28920    0.91618    0.51713   1.00
H3       0.29689    0.89244    0.44425   1.00
N1       0.23669    0.65701    0.49143   1.00
C6       0.22739    0.64938    0.52846   1.00
C6       0.20904    0.64075    0.46927   1.00
C6       0.19312    0.62843    0.53005   1.00
C6       0.18144    0.62295    0.49241   1.00
H3       0.24429    0.65872    0.55300   1.00
H3       0.20862    0.64197    0.43803   1.00
H3       0.17827    0.61831    0.55575   1.00
H3       0.15571    0.60766    0.48287   1.00
C4       0.24982    0.97915    0.24992   1.00
C4       0.25018    1.02085    0.25008   1.00
C3a      0.21564    0.95746    0.25981   1.00
C3       0.23454    1.04232    0.21863   1.00
C3       0.28345    0.95768    0.23979   1.00
C3a      0.26637    1.04254    0.28176   1.00
C2       0.25003    0.89488    0.24992   1.00
C2       0.25004    1.10512    0.24993   1.00
C3       0.21632    0.91595    0.25973   1.00
C3       0.23438    1.08363    0.21865   1.00
C3       0.28354    0.91637    0.23992   1.00
C3       0.26597    1.08405    0.28121   1.00
C5       0.17810    0.97772    0.27120   1.00
H1       0.22199    1.02691    0.19405   1.00
H1       0.19032    0.89979    0.26746   1.00
H1       0.22190    1.09901    0.19406   1.00
H1       0.31002    0.90099    0.23219   1.00
H1       0.27813    1.10021    0.30545   1.00
C5       0.28377    1.02228    0.31693   1.00
H1       0.30996    0.97309    0.23211   1.00
H2       0.28423    1.04256    0.34220   1.00
H2       0.26513    0.99731    0.32582   1.00
H2       0.15936    0.95744    0.28817   1.00
H2       0.18437    1.00269    0.29088   1.00
N1       0.32336    1.00857    0.30867   1.00
C6       0.35465    1.03073    0.30159   1.00
C6       0.33537    0.97154    0.30786   1.00
C6       0.38695    1.00759    0.29567   1.00
C6       0.37469    0.96995    0.29967   1.00
H3       0.35412    1.06197    0.30042   1.00
H3       0.31665    0.94700    0.31263   1.00
H3       0.41618    1.01713    0.28920   1.00
H3       0.39244    0.94425    0.29689   1.00
N1       0.15701    0.99143    0.23669   1.00
C6       0.14938    1.02846    0.22739   1.00
C6       0.14075    0.96927    0.20904   1.00
C6       0.12843    1.03005    0.19312   1.00
C6       0.12295    0.99241    0.18144   1.00
H3       0.15872    1.05300    0.24429   1.00
H3       0.14197    0.93803    0.20862   1.00
H3       0.11831    1.05575    0.17827   1.00
H3       0.10766    0.98287    0.15571   1.00
C4       0.02085    0.74992    0.25018   1.00
C4       -0.02085   0.75008    0.24982   1.00
C3a      0.04254    0.75981    0.28436   1.00
C3       -0.04232   0.71863    0.26546   1.00
C3       0.04232    0.73979    0.21655   1.00
C3a      -0.04254   0.78176    0.23363   1.00
C2       0.10512    0.74992    0.24997   1.00
C2       -0.10512   0.74993    0.24996   1.00
C3       0.08405    0.75973    0.28368   1.00
C3       -0.08363   0.71865    0.26562   1.00
C3       0.08363    0.73992    0.21646   1.00
C3       -0.08405   0.78121    0.23403   1.00
C5       0.02228    0.77120    0.32190   1.00
H1       -0.02691   0.69405    0.27801   1.00
H1       0.10021    0.76746    0.30968   1.00
H1       -0.09901   0.69406    0.27810   1.00
H1       0.09901    0.73219    0.18998   1.00
H1       -0.10021   0.80545    0.22187   1.00
C5       -0.02228   0.81693    0.21623   1.00
H1       0.02691    0.73211    0.19004   1.00
H2       -0.04256   0.84220    0.21577   1.00
H2       0.00269    0.82582    0.23487   1.00
H2       0.04256    0.78817    0.34064   1.00
H2       -0.00269   0.79088    0.31563   1.00
N1       -0.00857   0.80867    0.17664   1.00
C6       -0.03073   0.80159    0.14535   1.00
C6       0.02846    0.80786    0.16463   1.00
C6       -0.00759   0.79567    0.11305   1.00
C6       0.03005    0.79967    0.12531   1.00
H3       -0.06197   0.80042    0.14588   1.00
H3       0.05300    0.81263    0.18335   1.00
H3       -0.01713   0.78920    0.08382   1.00
H3       0.05575    0.79689    0.10756   1.00
N1       0.00857    0.73669    0.34299   1.00
C6       -0.02846   0.72739    0.35062   1.00
C6       0.03073    0.70904    0.35925   1.00
C6       -0.03005   0.69312    0.37157   1.00
C6       0.00759    0.68144    0.37705   1.00
H3       -0.05300   0.74429    0.34128   1.00
H3       0.06197    0.70862    0.35803   1.00
H3       -0.05575   0.67827    0.38169   1.00
H3       0.01713    0.65571    0.39234   1.00
C4       0.47915    0.74992    0.24982   1.00
C4       0.52085    0.75008    0.25018   1.00
C3a      0.45746    0.75981    0.21564   1.00
C3       0.54232    0.71863    0.23454   1.00
C3       0.45768    0.73979    0.28345   1.00
C3a      0.54254    0.78176    0.26637   1.00
C2       0.39488    0.74992    0.25003   1.00
C2       0.60512    0.74993    0.25004   1.00
C3       0.41595    0.75973    0.21632   1.00
C3       0.58363    0.71865    0.23438   1.00
C3       0.41637    0.73992    0.28354   1.00
C3       0.58405    0.78121    0.26597   1.00
C5       0.47772    0.77120    0.17810   1.00
H1       0.52691    0.69405    0.22199   1.00
H1       0.39979    0.76746    0.19032   1.00
H1       0.59901    0.69406    0.22190   1.00
H1       0.40099    0.73219    0.31002   1.00
H1       0.60021    0.80545    0.27813   1.00
C5       0.52228    0.81693    0.28377   1.00
H1       0.47309    0.73211    0.30996   1.00
H2       0.54256    0.84220    0.28423   1.00
H2       0.49731    0.82582    0.26513   1.00
H2       0.45744    0.78817    0.15936   1.00
H2       0.50269    0.79088    0.18437   1.00
N1       0.50857    0.80867    0.32336   1.00
C6       0.53073    0.80159    0.35465   1.00
C6       0.47154    0.80786    0.33537   1.00
C6       0.50759    0.79567    0.38695   1.00
C6       0.46995    0.79967    0.37469   1.00
H3       0.56197    0.80042    0.35412   1.00
H3       0.44700    0.81263    0.31665   1.00
H3       0.51713    0.78920    0.41618   1.00
H3       0.44425    0.79689    0.39244   1.00
N1       0.49143    0.73669    0.15701   1.00
C6       0.52846    0.72739    0.14938   1.00
C6       0.46927    0.70904    0.14075   1.00
C6       0.53005    0.69312    0.12843   1.00
C6       0.49241    0.68144    0.12295   1.00
H3       0.55300    0.74429    0.15872   1.00
H3       0.43803    0.70862    0.14197   1.00
H3       0.55575    0.67827    0.11831   1.00
H3       0.48287    0.65571    0.10766   1.00
C4       0.25018    0.52085    0.24992   1.00
C4       0.24982    0.47915    0.25008   1.00
C3a      0.28436    0.54254    0.25981   1.00
C3       0.26546    0.45768    0.21863   1.00
C3       0.21655    0.54232    0.23979   1.00
C3a      0.23363    0.45746    0.28176   1.00
C2       0.24997    0.60512    0.24992   1.00
C2       0.24996    0.39488    0.24993   1.00
C3       0.28368    0.58405    0.25973   1.00
C3       0.26562    0.41637    0.21865   1.00
C3       0.21646    0.58363    0.23992   1.00
C3       0.23403    0.41595    0.28121   1.00
C5       0.32190    0.52228    0.27120   1.00
H1       0.27801    0.47309    0.19405   1.00
H1       0.30968    0.60021    0.26746   1.00
H1       0.27810    0.40099    0.19406   1.00
H1       0.18998    0.59901    0.23219   1.00
H1       0.22187    0.39979    0.30545   1.00
C5       0.21623    0.47772    0.31693   1.00
H1       0.19004    0.52691    0.23211   1.00
H2       0.21577    0.45744    0.34220   1.00
H2       0.23487    0.50269    0.32582   1.00
H2       0.34064    0.54256    0.28817   1.00
H2       0.31563    0.49731    0.29088   1.00
N1       0.17664    0.49143    0.30867   1.00
C6       0.14535    0.46927    0.30159   1.00
C6       0.16463    0.52846    0.30786   1.00
C6       0.11305    0.49241    0.29567   1.00
C6       0.12531    0.53005    0.29967   1.00
H3       0.14588    0.43803    0.30042   1.00
H3       0.18335    0.55300    0.31263   1.00
H3       0.08382    0.48287    0.28920   1.00
H3       0.10756    0.55575    0.29689   1.00
N1       0.34299    0.50857    0.23669   1.00
C6       0.35062    0.47154    0.22739   1.00
C6       0.35925    0.53073    0.20904   1.00
C6       0.37157    0.46995    0.19312   1.00
C6       0.37705    0.50759    0.18144   1.00
H3       0.34128    0.44700    0.24429   1.00
H3       0.35803    0.56197    0.20862   1.00
H3       0.38169    0.44425    0.17827   1.00
H3       0.39234    0.51713    0.15571   1.00
C4       0.24992    0.75018    0.02085   1.00
C4       0.25008    0.74982    -0.02085   1.00
C3a      0.25981    0.78436    0.04254   1.00
C3       0.21863    0.76546    -0.04232   1.00
C3       0.23979    0.71655    0.04232   1.00
C3a      0.28176    0.73363    -0.04254   1.00
C2       0.24992    0.74997    0.10512   1.00
C2       0.24993    0.74996    -0.10512   1.00
C3       0.25973    0.78368    0.08405   1.00
C3       0.21865    0.76562    -0.08363   1.00
C3       0.23992    0.71646    0.08363   1.00
C3       0.28121    0.73403    -0.08405   1.00
C5       0.27120    0.82190    0.02228   1.00
H1       0.19405    0.77801    -0.02691   1.00
H1       0.26746    0.80968    0.10021   1.00
H1       0.19406    0.77810    -0.09901   1.00
H1       0.23219    0.68998    0.09901   1.00
H1       0.30545    0.72187    -0.10021   1.00
C5       0.31693    0.71623    -0.02228   1.00
H1       0.23211    0.69004    0.02691   1.00
H2       0.34220    0.71577    -0.04256   1.00
H2       0.32582    0.73487    0.00269   1.00
H2       0.28817    0.84064    0.04256   1.00
H2       0.29088    0.81563    -0.00269   1.00
N1       0.30867    0.67664    -0.00857   1.00
C6       0.30159    0.64535    -0.03073   1.00
C6       0.30786    0.66463    0.02846   1.00
C6       0.29567    0.61305    -0.00759   1.00
C6       0.29967    0.62531    0.03005   1.00
H3       0.30042    0.64588    -0.06197   1.00
H3       0.31263    0.68335    0.05300   1.00
H3       0.28920    0.58382    -0.01713   1.00
H3       0.29689    0.60756    0.05575   1.00
N1       0.23669    0.84299    0.00857   1.00
C6       0.22739    0.85062    -0.02846   1.00
C6       0.20904    0.85925    0.03073   1.00
C6       0.19312    0.87157    -0.03005   1.00
C6       0.18144    0.87705    0.00759   1.00
H3       0.24429    0.84128    -0.05300   1.00
H3       0.20862    0.85803    0.06197   1.00
H3       0.17827    0.88169    -0.05575   1.00
H3       0.15571    0.89234    0.01713   1.00
C4       0.74992    0.24982    0.47915   1.00
C4       0.75008    0.25018    0.52085   1.00
C3a      0.75981    0.21564    0.45746   1.00
C3       0.71863    0.23454    0.54232   1.00
C3       0.73979    0.28345    0.45768   1.00
C3a      0.78176    0.26637    0.54254   1.00
C2       0.74992    0.25003    0.39488   1.00
C2       0.74993    0.25004    0.60512   1.00
C3       0.75973    0.21632    0.41595   1.00
C3       0.71865    0.23438    0.58363   1.00
C3       0.73992    0.28354    0.41637   1.00
C3       0.78121    0.26597    0.58405   1.00
C5       0.77120    0.17810    0.47772   1.00
H1       0.69405    0.22199    0.52691   1.00
H1       0.76746    0.19032    0.39979   1.00
H1       0.69406    0.22190    0.59901   1.00
H1       0.73219    0.31002    0.40099   1.00
H1       0.80545    0.27813    0.60021   1.00
C5       0.81693    0.28377    0.52228   1.00
H1       0.73211    0.30996    0.47309   1.00
H2       0.84220    0.28423    0.54256   1.00
H2       0.82582    0.26513    0.49731   1.00
H2       0.78817    0.15936    0.45744   1.00
H2       0.79088    0.18437    0.50269   1.00
N1       0.80867    0.32336    0.50857   1.00
C6       0.80159    0.35465    0.53073   1.00
C6       0.80786    0.33537    0.47154   1.00
C6       0.79567    0.38695    0.50759   1.00
C6       0.79967    0.37469    0.46995   1.00
H3       0.80042    0.35412    0.56197   1.00
H3       0.81263    0.31665    0.44700   1.00
H3       0.78920    0.41618    0.51713   1.00
H3       0.79689    0.39244    0.44425   1.00
N1       0.73669    0.15701    0.49143   1.00
C6       0.72739    0.14938    0.52846   1.00
C6       0.70904    0.14075    0.46927   1.00
C6       0.69312    0.12843    0.53005   1.00
C6       0.68144    0.12295    0.49241   1.00
H3       0.74429    0.15872    0.55300   1.00
H3       0.70862    0.14197    0.43803   1.00
H3       0.67827    0.11831    0.55575   1.00
H3       0.65571    0.10766    0.48287   1.00
C4       0.74982    0.47915    0.24992   1.00
C4       0.75018    0.52085    0.25008   1.00
C3a      0.71564    0.45746    0.25981   1.00
C3       0.73454    0.54232    0.21863   1.00
C3       0.78345    0.45768    0.23979   1.00
C3a      0.76637    0.54254    0.28176   1.00
C2       0.75003    0.39488    0.24992   1.00
C2       0.75004    0.60512    0.24993   1.00
C3       0.71632    0.41595    0.25973   1.00
C3       0.73438    0.58363    0.21865   1.00
C3       0.78354    0.41637    0.23992   1.00
C3       0.76597    0.58405    0.28121   1.00
C5       0.67810    0.47772    0.27120   1.00
H1       0.72199    0.52691    0.19405   1.00
H1       0.69032    0.39979    0.26746   1.00
H1       0.72190    0.59901    0.19406   1.00
H1       0.81002    0.40099    0.23219   1.00
H1       0.77813    0.60021    0.30545   1.00
C5       0.78377    0.52228    0.31693   1.00
H1       0.80996    0.47309    0.23211   1.00
H2       0.78423    0.54256    0.34220   1.00
H2       0.76513    0.49731    0.32582   1.00
H2       0.65936    0.45744    0.28817   1.00
H2       0.68437    0.50269    0.29088   1.00
N1       0.82336    0.50857    0.30867   1.00
C6       0.85465    0.53073    0.30159   1.00
C6       0.83537    0.47154    0.30786   1.00
C6       0.88695    0.50759    0.29567   1.00
C6       0.87469    0.46995    0.29967   1.00
H3       0.85412    0.56197    0.30042   1.00
H3       0.81665    0.44700    0.31263   1.00
H3       0.91618    0.51713    0.28920   1.00
H3       0.89244    0.44425    0.29689   1.00
N1       0.65701    0.49143    0.23669   1.00
C6       0.64938    0.52846    0.22739   1.00
C6       0.64075    0.46927    0.20904   1.00
C6       0.62843    0.53005    0.19312   1.00
C6       0.62295    0.49241    0.18144   1.00
H3       0.65872    0.55300    0.24429   1.00
H3       0.64197    0.43803    0.20862   1.00
H3       0.61831    0.55575    0.17827   1.00
H3       0.60766    0.48287    0.15571   1.00
C4       0.52085    0.24992    0.25018   1.00
C4       0.47915    0.25008    0.24982   1.00
C3a      0.54254    0.25981    0.28436   1.00
C3       0.45768    0.21863    0.26546   1.00
C3       0.54232    0.23979    0.21655   1.00
C3a      0.45746    0.28176    0.23363   1.00
C2       0.60512    0.24992    0.24997   1.00
C2       0.39488    0.24993    0.24996   1.00
C3       0.58405    0.25973    0.28368   1.00
C3       0.41637    0.21865    0.26562   1.00
C3       0.58363    0.23992    0.21646   1.00
C3       0.41595    0.28121    0.23403   1.00
C5       0.52228    0.27120    0.32190   1.00
H1       0.47309    0.19405    0.27801   1.00
H1       0.60021    0.26746    0.30968   1.00
H1       0.40099    0.19406    0.27810   1.00
H1       0.59901    0.23219    0.18998   1.00
H1       0.39979    0.30545    0.22187   1.00
C5       0.47772    0.31693    0.21623   1.00
H1       0.52691    0.23211    0.19004   1.00
H2       0.45744    0.34220    0.21577   1.00
H2       0.50269    0.32582    0.23487   1.00
H2       0.54256    0.28817    0.34064   1.00
H2       0.49731    0.29088    0.31563   1.00
N1       0.49143    0.30867    0.17664   1.00
C6       0.46927    0.30159    0.14535   1.00
C6       0.52846    0.30786    0.16463   1.00
C6       0.49241    0.29567    0.11305   1.00
C6       0.53005    0.29967    0.12531   1.00
H3       0.43803    0.30042    0.14588   1.00
H3       0.55300    0.31263    0.18335   1.00
H3       0.48287    0.28920    0.08382   1.00
H3       0.55575    0.29689    0.10756   1.00
N1       0.50857    0.23669    0.34299   1.00
C6       0.47154    0.22739    0.35062   1.00
C6       0.53073    0.20904    0.35925   1.00
C6       0.46995    0.19312    0.37157   1.00
C6       0.50759    0.18144    0.37705   1.00
H3       0.44700    0.24429    0.34128   1.00
H3       0.56197    0.20862    0.35803   1.00
H3       0.44425    0.17827    0.38169   1.00
H3       0.51713    0.15571    0.39234   1.00
C4       0.97915    0.24992    0.24982   1.00
C4       1.02085    0.25008    0.25018   1.00
C3a      0.95746    0.25981    0.21564   1.00
C3       1.04232    0.21863    0.23454   1.00
C3       0.95768    0.23979    0.28345   1.00
C3a      1.04254    0.28176    0.26637   1.00
C2       0.89488    0.24992    0.25003   1.00
C2       1.10512    0.24993    0.25004   1.00
C3       0.91595    0.25973    0.21632   1.00
C3       1.08363    0.21865    0.23438   1.00
C3       0.91637    0.23992    0.28354   1.00
C3       1.08405    0.28121    0.26597   1.00
C5       0.97772    0.27120    0.17810   1.00
H1       1.02691    0.19405    0.22199   1.00
H1       0.89979    0.26746    0.19032   1.00
H1       1.09901    0.19406    0.22190   1.00
H1       0.90099    0.23219    0.31002   1.00
H1       1.10021    0.30545    0.27813   1.00
C5       1.02228    0.31693    0.28377   1.00
H1       0.97309    0.23211    0.30996   1.00
H2       1.04256    0.34220    0.28423   1.00
H2       0.99731    0.32582    0.26513   1.00
H2       0.95744    0.28817    0.15936   1.00
H2       1.00269    0.29088    0.18437   1.00
N1       1.00857    0.30867    0.32336   1.00
C6       1.03073    0.30159    0.35465   1.00
C6       0.97154    0.30786    0.33537   1.00
C6       1.00759    0.29567    0.38695   1.00
C6       0.96995    0.29967    0.37469   1.00
H3       1.06197    0.30042    0.35412   1.00
H3       0.94700    0.31263    0.31665   1.00
H3       1.01713    0.28920    0.41618   1.00
H3       0.94425    0.29689    0.39244   1.00
N1       0.99143    0.23669    0.15701   1.00
C6       1.02846    0.22739    0.14938   1.00
C6       0.96927    0.20904    0.14075   1.00
C6       1.03005    0.19312    0.12843   1.00
C6       0.99241    0.18144    0.12295   1.00
H3       1.05300    0.24429    0.15872   1.00
H3       0.93803    0.20862    0.14197   1.00
H3       1.05575    0.17827    0.11831   1.00
H3       0.98287    0.15571    0.10766   1.00
C4       0.75018    0.02085    0.24992   1.00
C4       0.74982    -0.02085   0.25008   1.00
C3a      0.78436    0.04254    0.25981   1.00
C3       0.76546    -0.04232   0.21863   1.00
C3       0.71655    0.04232    0.23979   1.00
C3a      0.73363    -0.04254   0.28176   1.00
C2       0.74997    0.10512    0.24992   1.00
C2       0.74996    -0.10512   0.24993   1.00
C3       0.78368    0.08405    0.25973   1.00
C3       0.76562    -0.08363   0.21865   1.00
C3       0.71646    0.08363    0.23992   1.00
C3       0.73403    -0.08405   0.28121   1.00
C5       0.82190    0.02228    0.27120   1.00
H1       0.77801    -0.02691   0.19405   1.00
H1       0.80968    0.10021    0.26746   1.00
H1       0.77810    -0.09901   0.19406   1.00
H1       0.68998    0.09901    0.23219   1.00
H1       0.72187    -0.10021   0.30545   1.00
C5       0.71623    -0.02228   0.31693   1.00
H1       0.69004    0.02691    0.23211   1.00
H2       0.71577    -0.04256   0.34220   1.00
H2       0.73487    0.00269    0.32582   1.00
H2       0.84064    0.04256    0.28817   1.00
H2       0.81563    -0.00269   0.29088   1.00
N1       0.67664    -0.00857   0.30867   1.00
C6       0.64535    -0.03073   0.30159   1.00
C6       0.66463    0.02846    0.30786   1.00
C6       0.61305    -0.00759   0.29567   1.00
C6       0.62531    0.03005    0.29967   1.00
H3       0.64588    -0.06197   0.30042   1.00
H3       0.68335    0.05300    0.31263   1.00
H3       0.58382    -0.01713   0.28920   1.00
H3       0.60756    0.05575    0.29689   1.00
N1       0.84299    0.00857    0.23669   1.00
C6       0.85062    -0.02846   0.22739   1.00
C6       0.85925    0.03073    0.20904   1.00
C6       0.87157    -0.03005   0.19312   1.00
C6       0.87705    0.00759    0.18144   1.00
H3       0.84128    -0.05300   0.24429   1.00
H3       0.85803    0.06197    0.20862   1.00
H3       0.88169    -0.05575   0.17827   1.00
H3       0.89234    0.01713    0.15571   1.00
C4       0.74992    0.25018    0.02085   1.00
C4       0.75008    0.24982    -0.02085   1.00
C3a      0.75981    0.28436    0.04254   1.00
C3       0.71863    0.26546    -0.04232   1.00
C3       0.73979    0.21655    0.04232   1.00
C3a      0.78176    0.23363    -0.04254   1.00
C2       0.74992    0.24997    0.10512   1.00
C2       0.74993    0.24996    -0.10512   1.00
C3       0.75973    0.28368    0.08405   1.00
C3       0.71865    0.26562    -0.08363   1.00
C3       0.73992    0.21646    0.08363   1.00
C3       0.78121    0.23403    -0.08405   1.00
C5       0.77120    0.32190    0.02228   1.00
H1       0.69405    0.27801    -0.02691   1.00
H1       0.76746    0.30968    0.10021   1.00
H1       0.69406    0.27810    -0.09901   1.00
H1       0.73219    0.18998    0.09901   1.00
H1       0.80545    0.22187    -0.10021   1.00
C5       0.81693    0.21623    -0.02228   1.00
H1       0.73211    0.19004    0.02691   1.00
H2       0.84220    0.21577    -0.04256   1.00
H2       0.82582    0.23487    0.00269   1.00
H2       0.78817    0.34064    0.04256   1.00
H2       0.79088    0.31563    -0.00269   1.00
N1       0.80867    0.17664    -0.00857   1.00
C6       0.80159    0.14535    -0.03073   1.00
C6       0.80786    0.16463    0.02846   1.00
C6       0.79567    0.11305    -0.00759   1.00
C6       0.79967    0.12531    0.03005   1.00
H3       0.80042    0.14588    -0.06197   1.00
H3       0.81263    0.18335    0.05300   1.00
H3       0.78920    0.08382    -0.01713   1.00
H3       0.79689    0.10756    0.05575   1.00
N1       0.73669    0.34299    0.00857   1.00
C6       0.72739    0.35062    -0.02846   1.00
C6       0.70904    0.35925    0.03073   1.00
C6       0.69312    0.37157    -0.03005   1.00
C6       0.68144    0.37705    0.00759   1.00
H3       0.74429    0.34128    -0.05300   1.00
H3       0.70862    0.35803    0.06197   1.00
H3       0.67827    0.38169    -0.05575   1.00
H3       0.65571    0.39234    0.01713   1.00
C4       0.91492    0.91482    1.14415   1.00
C4       0.91508    0.91518    1.18585   1.00
C3a      0.92481    0.88064    1.12246   1.00
C3       0.88363    0.89954    1.20732   1.00
C3       0.90479    0.94845    1.12268   1.00
C3a      0.94676    0.93137    1.20754   1.00
C2       0.91492    0.91503    1.05988   1.00
C2       0.91493    0.91504    1.27012   1.00
C3       0.92473    0.88132    1.08095   1.00
C3       0.88365    0.89938    1.24863   1.00
C3       0.90492    0.94854    1.08137   1.00
C3       0.94621    0.93097    1.24905   1.00
C5       0.93620    0.84310    1.14272   1.00
H1       0.85905    0.88699    1.19191   1.00
H1       0.93246    0.85532    1.06479   1.00
H1       0.85906    0.88690    1.26401   1.00
H1       0.89719    0.97502    1.06599   1.00
H1       0.97045    0.94313    1.26521   1.00
C5       0.98193    0.94877    1.18728   1.00
H1       0.89711    0.97496    1.13809   1.00
H2       1.00720    0.94923    1.20756   1.00
H2       0.99082    0.93013    1.16231   1.00
H2       0.95317    0.82436    1.12244   1.00
H2       0.95588    0.84937    1.16769   1.00
N1       0.97367    0.98836    1.17357   1.00
C6       0.96659    1.01965    1.19573   1.00
C6       0.97286    1.00037    1.13654   1.00
C6       0.96067    1.05195    1.17259   1.00
C6       0.96467    1.03969    1.13495   1.00
H3       0.96542    1.01912    1.22697   1.00
H3       0.97763    0.98165    1.11200   1.00
H3       0.95420    1.08118    1.18213   1.00
H3       0.96189    1.05744    1.10925   1.00
N1       0.90169    0.82201    1.15643   1.00
C6       0.89239    0.81438    1.19346   1.00
C6       0.87404    0.80575    1.13427   1.00
C6       0.85812    0.79343    1.19505   1.00
C6       0.84644    0.78795    1.15741   1.00
H3       0.90929    0.82372    1.21800   1.00
H3       0.87362    0.80697    1.10303   1.00
H3       0.84327    0.78331    1.22075   1.00
H3       0.82071    0.77266    1.14787   1.00
C4       0.91482    1.14415    0.91492   1.00
C4       0.91518    1.18585    0.91508   1.00
C3a      0.88064    1.12246    0.92481   1.00
C3       0.89954    1.20732    0.88363   1.00
C3       0.94845    1.12268    0.90479   1.00
C3a      0.93137    1.20754    0.94676   1.00
C2       0.91503    1.05988    0.91492   1.00
C2       0.91504    1.27012    0.91493   1.00
C3       0.88132    1.08095    0.92473   1.00
C3       0.89938    1.24863    0.88365   1.00
C3       0.94854    1.08137    0.90492   1.00
C3       0.93097    1.24905    0.94621   1.00
C5       0.84310    1.14272    0.93620   1.00
H1       0.88699    1.19191    0.85905   1.00
H1       0.85532    1.06479    0.93246   1.00
H1       0.88690    1.26401    0.85906   1.00
H1       0.97502    1.06599    0.89719   1.00
H1       0.94313    1.26521    0.97045   1.00
C5       0.94877    1.18728    0.98193   1.00
H1       0.97496    1.13809    0.89711   1.00
H2       0.94923    1.20756    1.00720   1.00
H2       0.93013    1.16231    0.99082   1.00
H2       0.82436    1.12244    0.95317   1.00
H2       0.84937    1.16769    0.95588   1.00
N1       0.98836    1.17357    0.97367   1.00
C6       1.01965    1.19573    0.96659   1.00
C6       1.00037    1.13654    0.97286   1.00
C6       1.05195    1.17259    0.96067   1.00
C6       1.03969    1.13495    0.96467   1.00
H3       1.01912    1.22697    0.96542   1.00
H3       0.98165    1.11200    0.97763   1.00
H3       1.08118    1.18213    0.95420   1.00
H3       1.05744    1.10925    0.96189   1.00
N1       0.82201    1.15643    0.90169   1.00
C6       0.81438    1.19346    0.89239   1.00
C6       0.80575    1.13427    0.87404   1.00
C6       0.79343    1.19505    0.85812   1.00
C6       0.78795    1.15741    0.84644   1.00
H3       0.82372    1.21800    0.90929   1.00
H3       0.80697    1.10303    0.87362   1.00
H3       0.78331    1.22075    0.84327   1.00
H3       0.77266    1.14787    0.82071   1.00
C4       0.68585    0.91492    0.91518   1.00
C4       0.64415    0.91508    0.91482   1.00
C3a      0.70754    0.92481    0.94936   1.00
C3       0.62268    0.88363    0.93046   1.00
C3       0.70732    0.90479    0.88155   1.00
C3a      0.62246    0.94676    0.89863   1.00
C2       0.77012    0.91492    0.91497   1.00
C2       0.55988    0.91493    0.91496   1.00
C3       0.74905    0.92473    0.94868   1.00
C3       0.58137    0.88365    0.93062   1.00
C3       0.74863    0.90492    0.88146   1.00
C3       0.58095    0.94621    0.89903   1.00
C5       0.68728    0.93620    0.98690   1.00
H1       0.63809    0.85905    0.94301   1.00
H1       0.76521    0.93246    0.97468   1.00
H1       0.56599    0.85906    0.94310   1.00
H1       0.76401    0.89719    0.85498   1.00
H1       0.56479    0.97045    0.88687   1.00
C5       0.64272    0.98193    0.88123   1.00
H1       0.69191    0.89711    0.85504   1.00
H2       0.62244    1.00720    0.88077   1.00
H2       0.66769    0.99082    0.89987   1.00
H2       0.70756    0.95317    1.00564   1.00
H2       0.66231    0.95588    0.98063   1.00
N1       0.65643    0.97367    0.84164   1.00
C6       0.63427    0.96659    0.81035   1.00
C6       0.69346    0.97286    0.82963   1.00
C6       0.65741    0.96067    0.77805   1.00
C6       0.69505    0.96467    0.79031   1.00
H3       0.60303    0.96542    0.81088   1.00
H3       0.71800    0.97763    0.84835   1.00
H3       0.64787    0.95420    0.74882   1.00
H3       0.72075    0.96189    0.77256   1.00
N1       0.67357    0.90169    1.00799   1.00
C6       0.63654    0.89239    1.01562   1.00
C6       0.69573    0.87404    1.02425   1.00
C6       0.63495    0.85812    1.03657   1.00
C6       0.67259    0.84644    1.04205   1.00
H3       0.61200    0.90929    1.00628   1.00
H3       0.72697    0.87362    1.02303   1.00
H3       0.60925    0.84327    1.04669   1.00
H3       0.68213    0.82071    1.05734   1.00
C4       1.14415    0.91492    0.91482   1.00
C4       1.18585    0.91508    0.91518   1.00
C3a      1.12246    0.92481    0.88064   1.00
C3       1.20732    0.88363    0.89954   1.00
C3       1.12268    0.90479    0.94845   1.00
C3a      1.20754    0.94676    0.93137   1.00
C2       1.05988    0.91492    0.91503   1.00
C2       1.27012    0.91493    0.91504   1.00
C3       1.08095    0.92473    0.88132   1.00
C3       1.24863    0.88365    0.89938   1.00
C3       1.08137    0.90492    0.94854   1.00
C3       1.24905    0.94621    0.93097   1.00
C5       1.14272    0.93620    0.84310   1.00
H1       1.19191    0.85905    0.88699   1.00
H1       1.06479    0.93246    0.85532   1.00
H1       1.26401    0.85906    0.88690   1.00
H1       1.06599    0.89719    0.97502   1.00
H1       1.26521    0.97045    0.94313   1.00
C5       1.18728    0.98193    0.94877   1.00
H1       1.13809    0.89711    0.97496   1.00
H2       1.20756    1.00720    0.94923   1.00
H2       1.16231    0.99082    0.93013   1.00
H2       1.12244    0.95317    0.82436   1.00
H2       1.16769    0.95588    0.84937   1.00
N1       1.17357    0.97367    0.98836   1.00
C6       1.19573    0.96659    1.01965   1.00
C6       1.13654    0.97286    1.00037   1.00
C6       1.17259    0.96067    1.05195   1.00
C6       1.13495    0.96467    1.03969   1.00
H3       1.22697    0.96542    1.01912   1.00
H3       1.11200    0.97763    0.98165   1.00
H3       1.18213    0.95420    1.08118   1.00
H3       1.10925    0.96189    1.05744   1.00
N1       1.15643    0.90169    0.82201   1.00
C6       1.19346    0.89239    0.81438   1.00
C6       1.13427    0.87404    0.80575   1.00
C6       1.19505    0.85812    0.79343   1.00
C6       1.15741    0.84644    0.78795   1.00
H3       1.21800    0.90929    0.82372   1.00
H3       1.10303    0.87362    0.80697   1.00
H3       1.22075    0.84327    0.78331   1.00
H3       1.14787    0.82071    0.77266   1.00
C4       0.91518    0.68585    0.91492   1.00
C4       0.91482    0.64415    0.91508   1.00
C3a      0.94936    0.70754    0.92481   1.00
C3       0.93046    0.62268    0.88363   1.00
C3       0.88155    0.70732    0.90479   1.00
C3a      0.89863    0.62246    0.94676   1.00
C2       0.91497    0.77012    0.91492   1.00
C2       0.91496    0.55988    0.91493   1.00
C3       0.94868    0.74905    0.92473   1.00
C3       0.93062    0.58137    0.88365   1.00
C3       0.88146    0.74863    0.90492   1.00
C3       0.89903    0.58095    0.94621   1.00
C5       0.98690    0.68728    0.93620   1.00
H1       0.94301    0.63809    0.85905   1.00
H1       0.97468    0.76521    0.93246   1.00
H1       0.94310    0.56599    0.85906   1.00
H1       0.85498    0.76401    0.89719   1.00
H1       0.88687    0.56479    0.97045   1.00
C5       0.88123    0.64272    0.98193   1.00
H1       0.85504    0.69191    0.89711   1.00
H2       0.88077    0.62244    1.00720   1.00
H2       0.89987    0.66769    0.99082   1.00
H2       1.00564    0.70756    0.95317   1.00
H2       0.98063    0.66231    0.95588   1.00
N1       0.84164    0.65643    0.97367   1.00
C6       0.81035    0.63427    0.96659   1.00
C6       0.82963    0.69346    0.97286   1.00
C6       0.77805    0.65741    0.96067   1.00
C6       0.79031    0.69505    0.96467   1.00
H3       0.81088    0.60303    0.96542   1.00
H3       0.84835    0.71800    0.97763   1.00
H3       0.74882    0.64787    0.95420   1.00
H3       0.77256    0.72075    0.96189   1.00
N1       1.00799    0.67357    0.90169   1.00
C6       1.01562    0.63654    0.89239   1.00
C6       1.02425    0.69573    0.87404   1.00
C6       1.03657    0.63495    0.85812   1.00
C6       1.04205    0.67259    0.84644   1.00
H3       1.00628    0.61200    0.90929   1.00
H3       1.02303    0.72697    0.87362   1.00
H3       1.04669    0.60925    0.84327   1.00
H3       1.05734    0.68213    0.82071   1.00
C4       0.91492    0.91518    0.68585   1.00
C4       0.91508    0.91482    0.64415   1.00
C3a      0.92481    0.94936    0.70754   1.00
C3       0.88363    0.93046    0.62268   1.00
C3       0.90479    0.88155    0.70732   1.00
C3a      0.94676    0.89863    0.62246   1.00
C2       0.91492    0.91497    0.77012   1.00
C2       0.91493    0.91496    0.55988   1.00
C3       0.92473    0.94868    0.74905   1.00
C3       0.88365    0.93062    0.58137   1.00
C3       0.90492    0.88146    0.74863   1.00
C3       0.94621    0.89903    0.58095   1.00
C5       0.93620    0.98690    0.68728   1.00
H1       0.85905    0.94301    0.63809   1.00
H1       0.93246    0.97468    0.76521   1.00
H1       0.85906    0.94310    0.56599   1.00
H1       0.89719    0.85498    0.76401   1.00
H1       0.97045    0.88687    0.56479   1.00
C5       0.98193    0.88123    0.64272   1.00
H1       0.89711    0.85504    0.69191   1.00
H2       1.00720    0.88077    0.62244   1.00
H2       0.99082    0.89987    0.66769   1.00
H2       0.95317    1.00564    0.70756   1.00
H2       0.95588    0.98063    0.66231   1.00
N1       0.97367    0.84164    0.65643   1.00
C6       0.96659    0.81035    0.63427   1.00
C6       0.97286    0.82963    0.69346   1.00
C6       0.96067    0.77805    0.65741   1.00
C6       0.96467    0.79031    0.69505   1.00
H3       0.96542    0.81088    0.60303   1.00
H3       0.97763    0.84835    0.71800   1.00
H3       0.95420    0.74882    0.64787   1.00
H3       0.96189    0.77256    0.72075   1.00
N1       0.90169    1.00799    0.67357   1.00
C6       0.89239    1.01562    0.63654   1.00
C6       0.87404    1.02425    0.69573   1.00
C6       0.85812    1.03657    0.63495   1.00
C6       0.84644    1.04205    0.67259   1.00
H3       0.90929    1.00628    0.61200   1.00
H3       0.87362    1.02303    0.72697   1.00
H3       0.84327    1.04669    0.60925   1.00
H3       0.82071    1.05734    0.68213   1.00
C4       0.41492    0.41482    1.14415   1.00
C4       0.41508    0.41518    1.18585   1.00
C3a      0.42481    0.38064    1.12246   1.00
C3       0.38363    0.39954    1.20732   1.00
C3       0.40479    0.44845    1.12268   1.00
C3a      0.44676    0.43137    1.20754   1.00
C2       0.41492    0.41503    1.05988   1.00
C2       0.41493    0.41504    1.27012   1.00
C3       0.42473    0.38132    1.08095   1.00
C3       0.38365    0.39938    1.24863   1.00
C3       0.40492    0.44854    1.08137   1.00
C3       0.44621    0.43097    1.24905   1.00
C5       0.43620    0.34310    1.14272   1.00
H1       0.35905    0.38699    1.19191   1.00
H1       0.43246    0.35532    1.06479   1.00
H1       0.35906    0.38690    1.26401   1.00
H1       0.39719    0.47502    1.06599   1.00
H1       0.47045    0.44313    1.26521   1.00
C5       0.48193    0.44877    1.18728   1.00
H1       0.39711    0.47496    1.13809   1.00
H2       0.50720    0.44923    1.20756   1.00
H2       0.49082    0.43013    1.16231   1.00
H2       0.45317    0.32436    1.12244   1.00
H2       0.45588    0.34937    1.16769   1.00
N1       0.47367    0.48836    1.17357   1.00
C6       0.46659    0.51965    1.19573   1.00
C6       0.47286    0.50037    1.13654   1.00
C6       0.46067    0.55195    1.17259   1.00
C6       0.46467    0.53969    1.13495   1.00
H3       0.46542    0.51912    1.22697   1.00
H3       0.47763    0.48165    1.11200   1.00
H3       0.45420    0.58118    1.18213   1.00
H3       0.46189    0.55744    1.10925   1.00
N1       0.40169    0.32201    1.15643   1.00
C6       0.39239    0.31438    1.19346   1.00
C6       0.37404    0.30575    1.13427   1.00
C6       0.35812    0.29343    1.19505   1.00
C6       0.34644    0.28795    1.15741   1.00
H3       0.40929    0.32372    1.21800   1.00
H3       0.37362    0.30697    1.10303   1.00
H3       0.34327    0.28331    1.22075   1.00
H3       0.32071    0.27266    1.14787   1.00
C4       0.41482    0.64415    0.91492   1.00
C4       0.41518    0.68585    0.91508   1.00
C3a      0.38064    0.62246    0.92481   1.00
C3       0.39954    0.70732    0.88363   1.00
C3       0.44845    0.62268    0.90479   1.00
C3a      0.43137    0.70754    0.94676   1.00
C2       0.41503    0.55988    0.91492   1.00
C2       0.41504    0.77012    0.91493   1.00
C3       0.38132    0.58095    0.92473   1.00
C3       0.39938    0.74863    0.88365   1.00
C3       0.44854    0.58137    0.90492   1.00
C3       0.43097    0.74905    0.94621   1.00
C5       0.34310    0.64272    0.93620   1.00
H1       0.38699    0.69191    0.85905   1.00
H1       0.35532    0.56479    0.93246   1.00
H1       0.38690    0.76401    0.85906   1.00
H1       0.47502    0.56599    0.89719   1.00
H1       0.44313    0.76521    0.97045   1.00
C5       0.44877    0.68728    0.98193   1.00
H1       0.47496    0.63809    0.89711   1.00
H2       0.44923    0.70756    1.00720   1.00
H2       0.43013    0.66231    0.99082   1.00
H2       0.32436    0.62244    0.95317   1.00
H2       0.34937    0.66769    0.95588   1.00
N1       0.48836    0.67357    0.97367   1.00
C6       0.51965    0.69573    0.96659   1.00
C6       0.50037    0.63654    0.97286   1.00
C6       0.55195    0.67259    0.96067   1.00
C6       0.53969    0.63495    0.96467   1.00
H3       0.51912    0.72697    0.96542   1.00
H3       0.48165    0.61200    0.97763   1.00
H3       0.58118    0.68213    0.95420   1.00
H3       0.55744    0.60925    0.96189   1.00
N1       0.32201    0.65643    0.90169   1.00
C6       0.31438    0.69346    0.89239   1.00
C6       0.30575    0.63427    0.87404   1.00
C6       0.29343    0.69505    0.85812   1.00
C6       0.28795    0.65741    0.84644   1.00
H3       0.32372    0.71800    0.90929   1.00
H3       0.30697    0.60303    0.87362   1.00
H3       0.28331    0.72075    0.84327   1.00
H3       0.27266    0.64787    0.82071   1.00
C4       0.18585    0.41492    0.91518   1.00
C4       0.14415    0.41508    0.91482   1.00
C3a      0.20754    0.42481    0.94936   1.00
C3       0.12268    0.38363    0.93046   1.00
C3       0.20732    0.40479    0.88155   1.00
C3a      0.12246    0.44676    0.89863   1.00
C2       0.27012    0.41492    0.91497   1.00
C2       0.05988    0.41493    0.91496   1.00
C3       0.24905    0.42473    0.94868   1.00
C3       0.08137    0.38365    0.93062   1.00
C3       0.24863    0.40492    0.88146   1.00
C3       0.08095    0.44621    0.89903   1.00
C5       0.18728    0.43620    0.98690   1.00
H1       0.13809    0.35905    0.94301   1.00
H1       0.26521    0.43246    0.97468   1.00
H1       0.06599    0.35906    0.94310   1.00
H1       0.26401    0.39719    0.85498   1.00
H1       0.06479    0.47045    0.88687   1.00
C5       0.14272    0.48193    0.88123   1.00
H1       0.19191    0.39711    0.85504   1.00
H2       0.12244    0.50720    0.88077   1.00
H2       0.16769    0.49082    0.89987   1.00
H2       0.20756    0.45317    1.00564   1.00
H2       0.16231    0.45588    0.98063   1.00
N1       0.15643    0.47367    0.84164   1.00
C6       0.13427    0.46659    0.81035   1.00
C6       0.19346    0.47286    0.82963   1.00
C6       0.15741    0.46067    0.77805   1.00
C6       0.19505    0.46467    0.79031   1.00
H3       0.10303    0.46542    0.81088   1.00
H3       0.21800    0.47763    0.84835   1.00
H3       0.14787    0.45420    0.74882   1.00
H3       0.22075    0.46189    0.77256   1.00
N1       0.17357    0.40169    1.00799   1.00
C6       0.13654    0.39239    1.01562   1.00
C6       0.19573    0.37404    1.02425   1.00
C6       0.13495    0.35812    1.03657   1.00
C6       0.17259    0.34644    1.04205   1.00
H3       0.11200    0.40929    1.00628   1.00
H3       0.22697    0.37362    1.02303   1.00
H3       0.10925    0.34327    1.04669   1.00
H3       0.18213    0.32071    1.05734   1.00
C4       0.64415    0.41492    0.91482   1.00
C4       0.68585    0.41508    0.91518   1.00
C3a      0.62246    0.42481    0.88064   1.00
C3       0.70732    0.38363    0.89954   1.00
C3       0.62268    0.40479    0.94845   1.00
C3a      0.70754    0.44676    0.93137   1.00
C2       0.55988    0.41492    0.91503   1.00
C2       0.77012    0.41493    0.91504   1.00
C3       0.58095    0.42473    0.88132   1.00
C3       0.74863    0.38365    0.89938   1.00
C3       0.58137    0.40492    0.94854   1.00
C3       0.74905    0.44621    0.93097   1.00
C5       0.64272    0.43620    0.84310   1.00
H1       0.69191    0.35905    0.88699   1.00
H1       0.56479    0.43246    0.85532   1.00
H1       0.76401    0.35906    0.88690   1.00
H1       0.56599    0.39719    0.97502   1.00
H1       0.76521    0.47045    0.94313   1.00
C5       0.68728    0.48193    0.94877   1.00
H1       0.63809    0.39711    0.97496   1.00
H2       0.70756    0.50720    0.94923   1.00
H2       0.66231    0.49082    0.93013   1.00
H2       0.62244    0.45317    0.82436   1.00
H2       0.66769    0.45588    0.84937   1.00
N1       0.67357    0.47367    0.98836   1.00
C6       0.69573    0.46659    1.01965   1.00
C6       0.63654    0.47286    1.00037   1.00
C6       0.67259    0.46067    1.05195   1.00
C6       0.63495    0.46467    1.03969   1.00
H3       0.72697    0.46542    1.01912   1.00
H3       0.61200    0.47763    0.98165   1.00
H3       0.68213    0.45420    1.08118   1.00
H3       0.60925    0.46189    1.05744   1.00
N1       0.65643    0.40169    0.82201   1.00
C6       0.69346    0.39239    0.81438   1.00
C6       0.63427    0.37404    0.80575   1.00
C6       0.69505    0.35812    0.79343   1.00
C6       0.65741    0.34644    0.78795   1.00
H3       0.71800    0.40929    0.82372   1.00
H3       0.60303    0.37362    0.80697   1.00
H3       0.72075    0.34327    0.78331   1.00
H3       0.64787    0.32071    0.77266   1.00
C4       0.41518    0.18585    0.91492   1.00
C4       0.41482    0.14415    0.91508   1.00
C3a      0.44936    0.20754    0.92481   1.00
C3       0.43046    0.12268    0.88363   1.00
C3       0.38155    0.20732    0.90479   1.00
C3a      0.39863    0.12246    0.94676   1.00
C2       0.41497    0.27012    0.91492   1.00
C2       0.41496    0.05988    0.91493   1.00
C3       0.44868    0.24905    0.92473   1.00
C3       0.43062    0.08137    0.88365   1.00
C3       0.38146    0.24863    0.90492   1.00
C3       0.39903    0.08095    0.94621   1.00
C5       0.48690    0.18728    0.93620   1.00
H1       0.44301    0.13809    0.85905   1.00
H1       0.47468    0.26521    0.93246   1.00
H1       0.44310    0.06599    0.85906   1.00
H1       0.35498    0.26401    0.89719   1.00
H1       0.38687    0.06479    0.97045   1.00
C5       0.38123    0.14272    0.98193   1.00
H1       0.35504    0.19191    0.89711   1.00
H2       0.38077    0.12244    1.00720   1.00
H2       0.39987    0.16769    0.99082   1.00
H2       0.50564    0.20756    0.95317   1.00
H2       0.48063    0.16231    0.95588   1.00
N1       0.34164    0.15643    0.97367   1.00
C6       0.31035    0.13427    0.96659   1.00
C6       0.32963    0.19346    0.97286   1.00
C6       0.27805    0.15741    0.96067   1.00
C6       0.29031    0.19505    0.96467   1.00
H3       0.31088    0.10303    0.96542   1.00
H3       0.34835    0.21800    0.97763   1.00
H3       0.24882    0.14787    0.95420   1.00
H3       0.27256    0.22075    0.96189   1.00
N1       0.50799    0.17357    0.90169   1.00
C6       0.51562    0.13654    0.89239   1.00
C6       0.52425    0.19573    0.87404   1.00
C6       0.53657    0.13495    0.85812   1.00
C6       0.54205    0.17259    0.84644   1.00
H3       0.50628    0.11200    0.90929   1.00
H3       0.52303    0.22697    0.87362   1.00
H3       0.54669    0.10925    0.84327   1.00
H3       0.55734    0.18213    0.82071   1.00
C4       0.41492    0.41518    0.68585   1.00
C4       0.41508    0.41482    0.64415   1.00
C3a      0.42481    0.44936    0.70754   1.00
C3       0.38363    0.43046    0.62268   1.00
C3       0.40479    0.38155    0.70732   1.00
C3a      0.44676    0.39863    0.62246   1.00
C2       0.41492    0.41497    0.77012   1.00
C2       0.41493    0.41496    0.55988   1.00
C3       0.42473    0.44868    0.74905   1.00
C3       0.38365    0.43062    0.58137   1.00
C3       0.40492    0.38146    0.74863   1.00
C3       0.44621    0.39903    0.58095   1.00
C5       0.43620    0.48690    0.68728   1.00
H1       0.35905    0.44301    0.63809   1.00
H1       0.43246    0.47468    0.76521   1.00
H1       0.35906    0.44310    0.56599   1.00
H1       0.39719    0.35498    0.76401   1.00
H1       0.47045    0.38687    0.56479   1.00
C5       0.48193    0.38123    0.64272   1.00
H1       0.39711    0.35504    0.69191   1.00
H2       0.50720    0.38077    0.62244   1.00
H2       0.49082    0.39987    0.66769   1.00
H2       0.45317    0.50564    0.70756   1.00
H2       0.45588    0.48063    0.66231   1.00
N1       0.47367    0.34164    0.65643   1.00
C6       0.46659    0.31035    0.63427   1.00
C6       0.47286    0.32963    0.69346   1.00
C6       0.46067    0.27805    0.65741   1.00
C6       0.46467    0.29031    0.69505   1.00
H3       0.46542    0.31088    0.60303   1.00
H3       0.47763    0.34835    0.71800   1.00
H3       0.45420    0.24882    0.64787   1.00
H3       0.46189    0.27256    0.72075   1.00
N1       0.40169    0.50799    0.67357   1.00
C6       0.39239    0.51562    0.63654   1.00
C6       0.37404    0.52425    0.69573   1.00
C6       0.35812    0.53657    0.63495   1.00
C6       0.34644    0.54205    0.67259   1.00
H3       0.40929    0.50628    0.61200   1.00
H3       0.37362    0.52303    0.72697   1.00
H3       0.34327    0.54669    0.60925   1.00
H3       0.32071    0.55734    0.68213   1.00
C4       0.41492    0.91482    0.64415   1.00
C4       0.41508    0.91518    0.68585   1.00
C3a      0.42481    0.88064    0.62246   1.00
C3       0.38363    0.89954    0.70732   1.00
C3       0.40479    0.94845    0.62268   1.00
C3a      0.44676    0.93137    0.70754   1.00
C2       0.41492    0.91503    0.55988   1.00
C2       0.41493    0.91504    0.77012   1.00
C3       0.42473    0.88132    0.58095   1.00
C3       0.38365    0.89938    0.74863   1.00
C3       0.40492    0.94854    0.58137   1.00
C3       0.44621    0.93097    0.74905   1.00
C5       0.43620    0.84310    0.64272   1.00
H1       0.35905    0.88699    0.69191   1.00
H1       0.43246    0.85532    0.56479   1.00
H1       0.35906    0.88690    0.76401   1.00
H1       0.39719    0.97502    0.56599   1.00
H1       0.47045    0.94313    0.76521   1.00
C5       0.48193    0.94877    0.68728   1.00
H1       0.39711    0.97496    0.63809   1.00
H2       0.50720    0.94923    0.70756   1.00
H2       0.49082    0.93013    0.66231   1.00
H2       0.45317    0.82436    0.62244   1.00
H2       0.45588    0.84937    0.66769   1.00
N1       0.47367    0.98836    0.67357   1.00
C6       0.46659    1.01965    0.69573   1.00
C6       0.47286    1.00037    0.63654   1.00
C6       0.46067    1.05195    0.67259   1.00
C6       0.46467    1.03969    0.63495   1.00
H3       0.46542    1.01912    0.72697   1.00
H3       0.47763    0.98165    0.61200   1.00
H3       0.45420    1.08118    0.68213   1.00
H3       0.46189    1.05744    0.60925   1.00
N1       0.40169    0.82201    0.65643   1.00
C6       0.39239    0.81438    0.69346   1.00
C6       0.37404    0.80575    0.63427   1.00
C6       0.35812    0.79343    0.69505   1.00
C6       0.34644    0.78795    0.65741   1.00
H3       0.40929    0.82372    0.71800   1.00
H3       0.37362    0.80697    0.60303   1.00
H3       0.34327    0.78331    0.72075   1.00
H3       0.32071    0.77266    0.64787   1.00
C4       0.41482    1.14415    0.41492   1.00
C4       0.41518    1.18585    0.41508   1.00
C3a      0.38064    1.12246    0.42481   1.00
C3       0.39954    1.20732    0.38363   1.00
C3       0.44845    1.12268    0.40479   1.00
C3a      0.43137    1.20754    0.44676   1.00
C2       0.41503    1.05988    0.41492   1.00
C2       0.41504    1.27012    0.41493   1.00
C3       0.38132    1.08095    0.42473   1.00
C3       0.39938    1.24863    0.38365   1.00
C3       0.44854    1.08137    0.40492   1.00
C3       0.43097    1.24905    0.44621   1.00
C5       0.34310    1.14272    0.43620   1.00
H1       0.38699    1.19191    0.35905   1.00
H1       0.35532    1.06479    0.43246   1.00
H1       0.38690    1.26401    0.35906   1.00
H1       0.47502    1.06599    0.39719   1.00
H1       0.44313    1.26521    0.47045   1.00
C5       0.44877    1.18728    0.48193   1.00
H1       0.47496    1.13809    0.39711   1.00
H2       0.44923    1.20756    0.50720   1.00
H2       0.43013    1.16231    0.49082   1.00
H2       0.32436    1.12244    0.45317   1.00
H2       0.34937    1.16769    0.45588   1.00
N1       0.48836    1.17357    0.47367   1.00
C6       0.51965    1.19573    0.46659   1.00
C6       0.50037    1.13654    0.47286   1.00
C6       0.55195    1.17259    0.46067   1.00
C6       0.53969    1.13495    0.46467   1.00
H3       0.51912    1.22697    0.46542   1.00
H3       0.48165    1.11200    0.47763   1.00
H3       0.58118    1.18213    0.45420   1.00
H3       0.55744    1.10925    0.46189   1.00
N1       0.32201    1.15643    0.40169   1.00
C6       0.31438    1.19346    0.39239   1.00
C6       0.30575    1.13427    0.37404   1.00
C6       0.29343    1.19505    0.35812   1.00
C6       0.28795    1.15741    0.34644   1.00
H3       0.32372    1.21800    0.40929   1.00
H3       0.30697    1.10303    0.37362   1.00
H3       0.28331    1.22075    0.34327   1.00
H3       0.27266    1.14787    0.32071   1.00
C4       0.18585    0.91492    0.41518   1.00
C4       0.14415    0.91508    0.41482   1.00
C3a      0.20754    0.92481    0.44936   1.00
C3       0.12268    0.88363    0.43046   1.00
C3       0.20732    0.90479    0.38155   1.00
C3a      0.12246    0.94676    0.39863   1.00
C2       0.27012    0.91492    0.41497   1.00
C2       0.05988    0.91493    0.41496   1.00
C3       0.24905    0.92473    0.44868   1.00
C3       0.08137    0.88365    0.43062   1.00
C3       0.24863    0.90492    0.38146   1.00
C3       0.08095    0.94621    0.39903   1.00
C5       0.18728    0.93620    0.48690   1.00
H1       0.13809    0.85905    0.44301   1.00
H1       0.26521    0.93246    0.47468   1.00
H1       0.06599    0.85906    0.44310   1.00
H1       0.26401    0.89719    0.35498   1.00
H1       0.06479    0.97045    0.38687   1.00
C5       0.14272    0.98193    0.38123   1.00
H1       0.19191    0.89711    0.35504   1.00
H2       0.12244    1.00720    0.38077   1.00
H2       0.16769    0.99082    0.39987   1.00
H2       0.20756    0.95317    0.50564   1.00
H2       0.16231    0.95588    0.48063   1.00
N1       0.15643    0.97367    0.34164   1.00
C6       0.13427    0.96659    0.31035   1.00
C6       0.19346    0.97286    0.32963   1.00
C6       0.15741    0.96067    0.27805   1.00
C6       0.19505    0.96467    0.29031   1.00
H3       0.10303    0.96542    0.31088   1.00
H3       0.21800    0.97763    0.34835   1.00
H3       0.14787    0.95420    0.24882   1.00
H3       0.22075    0.96189    0.27256   1.00
N1       0.17357    0.90169    0.50799   1.00
C6       0.13654    0.89239    0.51562   1.00
C6       0.19573    0.87404    0.52425   1.00
C6       0.13495    0.85812    0.53657   1.00
C6       0.17259    0.84644    0.54205   1.00
H3       0.11200    0.90929    0.50628   1.00
H3       0.22697    0.87362    0.52303   1.00
H3       0.10925    0.84327    0.54669   1.00
H3       0.18213    0.82071    0.55734   1.00
C4       0.64415    0.91492    0.41482   1.00
C4       0.68585    0.91508    0.41518   1.00
C3a      0.62246    0.92481    0.38064   1.00
C3       0.70732    0.88363    0.39954   1.00
C3       0.62268    0.90479    0.44845   1.00
C3a      0.70754    0.94676    0.43137   1.00
C2       0.55988    0.91492    0.41503   1.00
C2       0.77012    0.91493    0.41504   1.00
C3       0.58095    0.92473    0.38132   1.00
C3       0.74863    0.88365    0.39938   1.00
C3       0.58137    0.90492    0.44854   1.00
C3       0.74905    0.94621    0.43097   1.00
C5       0.64272    0.93620    0.34310   1.00
H1       0.69191    0.85905    0.38699   1.00
H1       0.56479    0.93246    0.35532   1.00
H1       0.76401    0.85906    0.38690   1.00
H1       0.56599    0.89719    0.47502   1.00
H1       0.76521    0.97045    0.44313   1.00
C5       0.68728    0.98193    0.44877   1.00
H1       0.63809    0.89711    0.47496   1.00
H2       0.70756    1.00720    0.44923   1.00
H2       0.66231    0.99082    0.43013   1.00
H2       0.62244    0.95317    0.32436   1.00
H2       0.66769    0.95588    0.34937   1.00
N1       0.67357    0.97367    0.48836   1.00
C6       0.69573    0.96659    0.51965   1.00
C6       0.63654    0.97286    0.50037   1.00
C6       0.67259    0.96067    0.55195   1.00
C6       0.63495    0.96467    0.53969   1.00
H3       0.72697    0.96542    0.51912   1.00
H3       0.61200    0.97763    0.48165   1.00
H3       0.68213    0.95420    0.58118   1.00
H3       0.60925    0.96189    0.55744   1.00
N1       0.65643    0.90169    0.32201   1.00
C6       0.69346    0.89239    0.31438   1.00
C6       0.63427    0.87404    0.30575   1.00
C6       0.69505    0.85812    0.29343   1.00
C6       0.65741    0.84644    0.28795   1.00
H3       0.71800    0.90929    0.32372   1.00
H3       0.60303    0.87362    0.30697   1.00
H3       0.72075    0.84327    0.28331   1.00
H3       0.64787    0.82071    0.27266   1.00
C4       0.41518    0.68585    0.41492   1.00
C4       0.41482    0.64415    0.41508   1.00
C3a      0.44936    0.70754    0.42481   1.00
C3       0.43046    0.62268    0.38363   1.00
C3       0.38155    0.70732    0.40479   1.00
C3a      0.39863    0.62246    0.44676   1.00
C2       0.41497    0.77012    0.41492   1.00
C2       0.41496    0.55988    0.41493   1.00
C3       0.44868    0.74905    0.42473   1.00
C3       0.43062    0.58137    0.38365   1.00
C3       0.38146    0.74863    0.40492   1.00
C3       0.39903    0.58095    0.44621   1.00
C5       0.48690    0.68728    0.43620   1.00
H1       0.44301    0.63809    0.35905   1.00
H1       0.47468    0.76521    0.43246   1.00
H1       0.44310    0.56599    0.35906   1.00
H1       0.35498    0.76401    0.39719   1.00
H1       0.38687    0.56479    0.47045   1.00
C5       0.38123    0.64272    0.48193   1.00
H1       0.35504    0.69191    0.39711   1.00
H2       0.38077    0.62244    0.50720   1.00
H2       0.39987    0.66769    0.49082   1.00
H2       0.50564    0.70756    0.45317   1.00
H2       0.48063    0.66231    0.45588   1.00
N1       0.34164    0.65643    0.47367   1.00
C6       0.31035    0.63427    0.46659   1.00
C6       0.32963    0.69346    0.47286   1.00
C6       0.27805    0.65741    0.46067   1.00
C6       0.29031    0.69505    0.46467   1.00
H3       0.31088    0.60303    0.46542   1.00
H3       0.34835    0.71800    0.47763   1.00
H3       0.24882    0.64787    0.45420   1.00
H3       0.27256    0.72075    0.46189   1.00
N1       0.50799    0.67357    0.40169   1.00
C6       0.51562    0.63654    0.39239   1.00
C6       0.52425    0.69573    0.37404   1.00
C6       0.53657    0.63495    0.35812   1.00
C6       0.54205    0.67259    0.34644   1.00
H3       0.50628    0.61200    0.40929   1.00
H3       0.52303    0.72697    0.37362   1.00
H3       0.54669    0.60925    0.34327   1.00
H3       0.55734    0.68213    0.32071   1.00
C4       0.41492    0.91518    0.18585   1.00
C4       0.41508    0.91482    0.14415   1.00
C3a      0.42481    0.94936    0.20754   1.00
C3       0.38363    0.93046    0.12268   1.00
C3       0.40479    0.88155    0.20732   1.00
C3a      0.44676    0.89863    0.12246   1.00
C2       0.41492    0.91497    0.27012   1.00
C2       0.41493    0.91496    0.05988   1.00
C3       0.42473    0.94868    0.24905   1.00
C3       0.38365    0.93062    0.08137   1.00
C3       0.40492    0.88146    0.24863   1.00
C3       0.44621    0.89903    0.08095   1.00
C5       0.43620    0.98690    0.18728   1.00
H1       0.35905    0.94301    0.13809   1.00
H1       0.43246    0.97468    0.26521   1.00
H1       0.35906    0.94310    0.06599   1.00
H1       0.39719    0.85498    0.26401   1.00
H1       0.47045    0.88687    0.06479   1.00
C5       0.48193    0.88123    0.14272   1.00
H1       0.39711    0.85504    0.19191   1.00
H2       0.50720    0.88077    0.12244   1.00
H2       0.49082    0.89987    0.16769   1.00
H2       0.45317    1.00564    0.20756   1.00
H2       0.45588    0.98063    0.16231   1.00
N1       0.47367    0.84164    0.15643   1.00
C6       0.46659    0.81035    0.13427   1.00
C6       0.47286    0.82963    0.19346   1.00
C6       0.46067    0.77805    0.15741   1.00
C6       0.46467    0.79031    0.19505   1.00
H3       0.46542    0.81088    0.10303   1.00
H3       0.47763    0.84835    0.21800   1.00
H3       0.45420    0.74882    0.14787   1.00
H3       0.46189    0.77256    0.22075   1.00
N1       0.40169    1.00799    0.17357   1.00
C6       0.39239    1.01562    0.13654   1.00
C6       0.37404    1.02425    0.19573   1.00
C6       0.35812    1.03657    0.13495   1.00
C6       0.34644    1.04205    0.17259   1.00
H3       0.40929    1.00628    0.11200   1.00
H3       0.37362    1.02303    0.22697   1.00
H3       0.34327    1.04669    0.10925   1.00
H3       0.32071    1.05734    0.18213   1.00
C4       0.91492    0.41482    0.64415   1.00
C4       0.91508    0.41518    0.68585   1.00
C3a      0.92481    0.38064    0.62246   1.00
C3       0.88363    0.39954    0.70732   1.00
C3       0.90479    0.44845    0.62268   1.00
C3a      0.94676    0.43137    0.70754   1.00
C2       0.91492    0.41503    0.55988   1.00
C2       0.91493    0.41504    0.77012   1.00
C3       0.92473    0.38132    0.58095   1.00
C3       0.88365    0.39938    0.74863   1.00
C3       0.90492    0.44854    0.58137   1.00
C3       0.94621    0.43097    0.74905   1.00
C5       0.93620    0.34310    0.64272   1.00
H1       0.85905    0.38699    0.69191   1.00
H1       0.93246    0.35532    0.56479   1.00
H1       0.85906    0.38690    0.76401   1.00
H1       0.89719    0.47502    0.56599   1.00
H1       0.97045    0.44313    0.76521   1.00
C5       0.98193    0.44877    0.68728   1.00
H1       0.89711    0.47496    0.63809   1.00
H2       1.00720    0.44923    0.70756   1.00
H2       0.99082    0.43013    0.66231   1.00
H2       0.95317    0.32436    0.62244   1.00
H2       0.95588    0.34937    0.66769   1.00
N1       0.97367    0.48836    0.67357   1.00
C6       0.96659    0.51965    0.69573   1.00
C6       0.97286    0.50037    0.63654   1.00
C6       0.96067    0.55195    0.67259   1.00
C6       0.96467    0.53969    0.63495   1.00
H3       0.96542    0.51912    0.72697   1.00
H3       0.97763    0.48165    0.61200   1.00
H3       0.95420    0.58118    0.68213   1.00
H3       0.96189    0.55744    0.60925   1.00
N1       0.90169    0.32201    0.65643   1.00
C6       0.89239    0.31438    0.69346   1.00
C6       0.87404    0.30575    0.63427   1.00
C6       0.85812    0.29343    0.69505   1.00
C6       0.84644    0.28795    0.65741   1.00
H3       0.90929    0.32372    0.71800   1.00
H3       0.87362    0.30697    0.60303   1.00
H3       0.84327    0.28331    0.72075   1.00
H3       0.82071    0.27266    0.64787   1.00
C4       0.91482    0.64415    0.41492   1.00
C4       0.91518    0.68585    0.41508   1.00
C3a      0.88064    0.62246    0.42481   1.00
C3       0.89954    0.70732    0.38363   1.00
C3       0.94845    0.62268    0.40479   1.00
C3a      0.93137    0.70754    0.44676   1.00
C2       0.91503    0.55988    0.41492   1.00
C2       0.91504    0.77012    0.41493   1.00
C3       0.88132    0.58095    0.42473   1.00
C3       0.89938    0.74863    0.38365   1.00
C3       0.94854    0.58137    0.40492   1.00
C3       0.93097    0.74905    0.44621   1.00
C5       0.84310    0.64272    0.43620   1.00
H1       0.88699    0.69191    0.35905   1.00
H1       0.85532    0.56479    0.43246   1.00
H1       0.88690    0.76401    0.35906   1.00
H1       0.97502    0.56599    0.39719   1.00
H1       0.94313    0.76521    0.47045   1.00
C5       0.94877    0.68728    0.48193   1.00
H1       0.97496    0.63809    0.39711   1.00
H2       0.94923    0.70756    0.50720   1.00
H2       0.93013    0.66231    0.49082   1.00
H2       0.82436    0.62244    0.45317   1.00
H2       0.84937    0.66769    0.45588   1.00
N1       0.98836    0.67357    0.47367   1.00
C6       1.01965    0.69573    0.46659   1.00
C6       1.00037    0.63654    0.47286   1.00
C6       1.05195    0.67259    0.46067   1.00
C6       1.03969    0.63495    0.46467   1.00
H3       1.01912    0.72697    0.46542   1.00
H3       0.98165    0.61200    0.47763   1.00
H3       1.08118    0.68213    0.45420   1.00
H3       1.05744    0.60925    0.46189   1.00
N1       0.82201    0.65643    0.40169   1.00
C6       0.81438    0.69346    0.39239   1.00
C6       0.80575    0.63427    0.37404   1.00
C6       0.79343    0.69505    0.35812   1.00
C6       0.78795    0.65741    0.34644   1.00
H3       0.82372    0.71800    0.40929   1.00
H3       0.80697    0.60303    0.37362   1.00
H3       0.78331    0.72075    0.34327   1.00
H3       0.77266    0.64787    0.32071   1.00
C4       0.68585    0.41492    0.41518   1.00
C4       0.64415    0.41508    0.41482   1.00
C3a      0.70754    0.42481    0.44936   1.00
C3       0.62268    0.38363    0.43046   1.00
C3       0.70732    0.40479    0.38155   1.00
C3a      0.62246    0.44676    0.39863   1.00
C2       0.77012    0.41492    0.41497   1.00
C2       0.55988    0.41493    0.41496   1.00
C3       0.74905    0.42473    0.44868   1.00
C3       0.58137    0.38365    0.43062   1.00
C3       0.74863    0.40492    0.38146   1.00
C3       0.58095    0.44621    0.39903   1.00
C5       0.68728    0.43620    0.48690   1.00
H1       0.63809    0.35905    0.44301   1.00
H1       0.76521    0.43246    0.47468   1.00
H1       0.56599    0.35906    0.44310   1.00
H1       0.76401    0.39719    0.35498   1.00
H1       0.56479    0.47045    0.38687   1.00
C5       0.64272    0.48193    0.38123   1.00
H1       0.69191    0.39711    0.35504   1.00
H2       0.62244    0.50720    0.38077   1.00
H2       0.66769    0.49082    0.39987   1.00
H2       0.70756    0.45317    0.50564   1.00
H2       0.66231    0.45588    0.48063   1.00
N1       0.65643    0.47367    0.34164   1.00
C6       0.63427    0.46659    0.31035   1.00
C6       0.69346    0.47286    0.32963   1.00
C6       0.65741    0.46067    0.27805   1.00
C6       0.69505    0.46467    0.29031   1.00
H3       0.60303    0.46542    0.31088   1.00
H3       0.71800    0.47763    0.34835   1.00
H3       0.64787    0.45420    0.24882   1.00
H3       0.72075    0.46189    0.27256   1.00
N1       0.67357    0.40169    0.50799   1.00
C6       0.63654    0.39239    0.51562   1.00
C6       0.69573    0.37404    0.52425   1.00
C6       0.63495    0.35812    0.53657   1.00
C6       0.67259    0.34644    0.54205   1.00
H3       0.61200    0.40929    0.50628   1.00
H3       0.72697    0.37362    0.52303   1.00
H3       0.60925    0.34327    0.54669   1.00
H3       0.68213    0.32071    0.55734   1.00
C4       1.14415    0.41492    0.41482   1.00
C4       1.18585    0.41508    0.41518   1.00
C3a      1.12246    0.42481    0.38064   1.00
C3       1.20732    0.38363    0.39954   1.00
C3       1.12268    0.40479    0.44845   1.00
C3a      1.20754    0.44676    0.43137   1.00
C2       1.05988    0.41492    0.41503   1.00
C2       1.27012    0.41493    0.41504   1.00
C3       1.08095    0.42473    0.38132   1.00
C3       1.24863    0.38365    0.39938   1.00
C3       1.08137    0.40492    0.44854   1.00
C3       1.24905    0.44621    0.43097   1.00
C5       1.14272    0.43620    0.34310   1.00
H1       1.19191    0.35905    0.38699   1.00
H1       1.06479    0.43246    0.35532   1.00
H1       1.26401    0.35906    0.38690   1.00
H1       1.06599    0.39719    0.47502   1.00
H1       1.26521    0.47045    0.44313   1.00
C5       1.18728    0.48193    0.44877   1.00
H1       1.13809    0.39711    0.47496   1.00
H2       1.20756    0.50720    0.44923   1.00
H2       1.16231    0.49082    0.43013   1.00
H2       1.12244    0.45317    0.32436   1.00
H2       1.16769    0.45588    0.34937   1.00
N1       1.17357    0.47367    0.48836   1.00
C6       1.19573    0.46659    0.51965   1.00
C6       1.13654    0.47286    0.50037   1.00
C6       1.17259    0.46067    0.55195   1.00
C6       1.13495    0.46467    0.53969   1.00
H3       1.22697    0.46542    0.51912   1.00
H3       1.11200    0.47763    0.48165   1.00
H3       1.18213    0.45420    0.58118   1.00
H3       1.10925    0.46189    0.55744   1.00
N1       1.15643    0.40169    0.32201   1.00
C6       1.19346    0.39239    0.31438   1.00
C6       1.13427    0.37404    0.30575   1.00
C6       1.19505    0.35812    0.29343   1.00
C6       1.15741    0.34644    0.28795   1.00
H3       1.21800    0.40929    0.32372   1.00
H3       1.10303    0.37362    0.30697   1.00
H3       1.22075    0.34327    0.28331   1.00
H3       1.14787    0.32071    0.27266   1.00
C4       0.91518    0.18585    0.41492   1.00
C4       0.91482    0.14415    0.41508   1.00
C3a      0.94936    0.20754    0.42481   1.00
C3       0.93046    0.12268    0.38363   1.00
C3       0.88155    0.20732    0.40479   1.00
C3a      0.89863    0.12246    0.44676   1.00
C2       0.91497    0.27012    0.41492   1.00
C2       0.91496    0.05988    0.41493   1.00
C3       0.94868    0.24905    0.42473   1.00
C3       0.93062    0.08137    0.38365   1.00
C3       0.88146    0.24863    0.40492   1.00
C3       0.89903    0.08095    0.44621   1.00
C5       0.98690    0.18728    0.43620   1.00
H1       0.94301    0.13809    0.35905   1.00
H1       0.97468    0.26521    0.43246   1.00
H1       0.94310    0.06599    0.35906   1.00
H1       0.85498    0.26401    0.39719   1.00
H1       0.88687    0.06479    0.47045   1.00
C5       0.88123    0.14272    0.48193   1.00
H1       0.85504    0.19191    0.39711   1.00
H2       0.88077    0.12244    0.50720   1.00
H2       0.89987    0.16769    0.49082   1.00
H2       1.00564    0.20756    0.45317   1.00
H2       0.98063    0.16231    0.45588   1.00
N1       0.84164    0.15643    0.47367   1.00
C6       0.81035    0.13427    0.46659   1.00
C6       0.82963    0.19346    0.47286   1.00
C6       0.77805    0.15741    0.46067   1.00
C6       0.79031    0.19505    0.46467   1.00
H3       0.81088    0.10303    0.46542   1.00
H3       0.84835    0.21800    0.47763   1.00
H3       0.74882    0.14787    0.45420   1.00
H3       0.77256    0.22075    0.46189   1.00
N1       1.00799    0.17357    0.40169   1.00
C6       1.01562    0.13654    0.39239   1.00
C6       1.02425    0.19573    0.37404   1.00
C6       1.03657    0.13495    0.35812   1.00
C6       1.04205    0.17259    0.34644   1.00
H3       1.00628    0.11200    0.40929   1.00
H3       1.02303    0.22697    0.37362   1.00
H3       1.04669    0.10925    0.34327   1.00
H3       1.05734    0.18213    0.32071   1.00
C4       0.91492    0.41518    0.18585   1.00
C4       0.91508    0.41482    0.14415   1.00
C3a      0.92481    0.44936    0.20754   1.00
C3       0.88363    0.43046    0.12268   1.00
C3       0.90479    0.38155    0.20732   1.00
C3a      0.94676    0.39863    0.12246   1.00
C2       0.91492    0.41497    0.27012   1.00
C2       0.91493    0.41496    0.05988   1.00
C3       0.92473    0.44868    0.24905   1.00
C3       0.88365    0.43062    0.08137   1.00
C3       0.90492    0.38146    0.24863   1.00
C3       0.94621    0.39903    0.08095   1.00
C5       0.93620    0.48690    0.18728   1.00
H1       0.85905    0.44301    0.13809   1.00
H1       0.93246    0.47468    0.26521   1.00
H1       0.85906    0.44310    0.06599   1.00
H1       0.89719    0.35498    0.26401   1.00
H1       0.97045    0.38687    0.06479   1.00
C5       0.98193    0.38123    0.14272   1.00
H1       0.89711    0.35504    0.19191   1.00
H2       1.00720    0.38077    0.12244   1.00
H2       0.99082    0.39987    0.16769   1.00
H2       0.95317    0.50564    0.20756   1.00
H2       0.95588    0.48063    0.16231   1.00
N1       0.97367    0.34164    0.15643   1.00
C6       0.96659    0.31035    0.13427   1.00
C6       0.97286    0.32963    0.19346   1.00
C6       0.96067    0.27805    0.15741   1.00
C6       0.96467    0.29031    0.19505   1.00
H3       0.96542    0.31088    0.10303   1.00
H3       0.97763    0.34835    0.21800   1.00
H3       0.95420    0.24882    0.14787   1.00
H3       0.96189    0.27256    0.22075   1.00
N1       0.90169    0.50799    0.17357   1.00
C6       0.89239    0.51562    0.13654   1.00
C6       0.87404    0.52425    0.19573   1.00
C6       0.85812    0.53657    0.13495   1.00
C6       0.84644    0.54205    0.17259   1.00
H3       0.90929    0.50628    0.11200   1.00
H3       0.87362    0.52303    0.22697   1.00
H3       0.84327    0.54669    0.10925   1.00
H3       0.82071    0.55734    0.18213   1.00
