data_IRMOF10_SG202_interpen_Ligand10cp_label_q.

_audit_creation_method             'generated by an auxiliary program of Tobunporous'

_symmetry_space_group_name_H-M     'P 1'
_symmetry_Int_Tables_number        1
_symmetry_cell_setting             triclinic

_cell_length_a                    34.2800
_cell_length_b                    34.2800
_cell_length_c                    34.2800
_cell_angle_alpha                 90.0000
_cell_angle_beta                  90.0000
_cell_angle_gamma                 90.0000

loop_
_atom_site_label
_atom_site_fract_x
_atom_site_fract_y
_atom_site_fract_z
_atom_site_occupancy
O1       0.75000    0.75000    0.75000   1.00
Zn1      0.71720    0.78280    0.78280   1.00
Zn1      0.78280    0.71720    0.78280   1.00
Zn1      0.78280    0.78280    0.71720   1.00
Zn1      0.71720    0.71720    0.71720   1.00
O2       0.72650    0.77350    0.83820   1.00
O2       0.72650    0.83820    0.77350   1.00
O2       0.66180    0.77350    0.77350   1.00
O2       0.77350    0.72650    0.83820   1.00
O2       0.83820    0.72650    0.77350   1.00
O2       0.77350    0.66180    0.77350   1.00
O2       0.77350    0.83820    0.72650   1.00
O2       0.83820    0.77350    0.72650   1.00
O2       0.77350    0.77350    0.66180   1.00
O2       0.66180    0.72650    0.72650   1.00
O2       0.72650    0.66180    0.72650   1.00
O2       0.72650    0.72650    0.66180   1.00
C1       0.75000    0.75000    0.85520   1.00
C1       0.75000    0.85520    0.75000   1.00
C1       0.64480    0.75000    0.75000   1.00
C1       0.85520    0.75000    0.75000   1.00
C1       0.75000    0.64480    0.75000   1.00
C1       0.75000    0.75000    0.64480   1.00
O1       0.25000    0.25000    0.75000   1.00
Zn1      0.21720    0.28280    0.78280   1.00
Zn1      0.28280    0.21720    0.78280   1.00
Zn1      0.28280    0.28280    0.71720   1.00
Zn1      0.21720    0.21720    0.71720   1.00
O2       0.22650    0.27350    0.83820   1.00
O2       0.22650    0.33820    0.77350   1.00
O2       0.16180    0.27350    0.77350   1.00
O2       0.27350    0.22650    0.83820   1.00
O2       0.33820    0.22650    0.77350   1.00
O2       0.27350    0.16180    0.77350   1.00
O2       0.27350    0.33820    0.72650   1.00
O2       0.33820    0.27350    0.72650   1.00
O2       0.27350    0.27350    0.66180   1.00
O2       0.16180    0.22650    0.72650   1.00
O2       0.22650    0.16180    0.72650   1.00
O2       0.22650    0.22650    0.66180   1.00
C1       0.25000    0.25000    0.85520   1.00
C1       0.25000    0.35520    0.75000   1.00
C1       0.14480    0.25000    0.75000   1.00
C1       0.35520    0.25000    0.75000   1.00
C1       0.25000    0.14480    0.75000   1.00
C1       0.25000    0.25000    0.64480   1.00
O1       0.25000    0.75000    0.25000   1.00
Zn1      0.21720    0.78280    0.28280   1.00
Zn1      0.28280    0.71720    0.28280   1.00
Zn1      0.28280    0.78280    0.21720   1.00
Zn1      0.21720    0.71720    0.21720   1.00
O2       0.22650    0.77350    0.33820   1.00
O2       0.22650    0.83820    0.27350   1.00
O2       0.16180    0.77350    0.27350   1.00
O2       0.27350    0.72650    0.33820   1.00
O2       0.33820    0.72650    0.27350   1.00
O2       0.27350    0.66180    0.27350   1.00
O2       0.27350    0.83820    0.22650   1.00
O2       0.33820    0.77350    0.22650   1.00
O2       0.27350    0.77350    0.16180   1.00
O2       0.16180    0.72650    0.22650   1.00
O2       0.22650    0.66180    0.22650   1.00
O2       0.22650    0.72650    0.16180   1.00
C1       0.25000    0.75000    0.35520   1.00
C1       0.25000    0.85520    0.25000   1.00
C1       0.14480    0.75000    0.25000   1.00
C1       0.35520    0.75000    0.25000   1.00
C1       0.25000    0.64480    0.25000   1.00
C1       0.25000    0.75000    0.14480   1.00
O1       0.75000    0.25000    0.25000   1.00
Zn1      0.71720    0.28280    0.28280   1.00
Zn1      0.78280    0.21720    0.28280   1.00
Zn1      0.78280    0.28280    0.21720   1.00
Zn1      0.71720    0.21720    0.21720   1.00
O2       0.72650    0.27350    0.33820   1.00
O2       0.72650    0.33820    0.27350   1.00
O2       0.66180    0.27350    0.27350   1.00
O2       0.77350    0.22650    0.33820   1.00
O2       0.83820    0.22650    0.27350   1.00
O2       0.77350    0.16180    0.27350   1.00
O2       0.77350    0.33820    0.22650   1.00
O2       0.83820    0.27350    0.22650   1.00
O2       0.77350    0.27350    0.16180   1.00
O2       0.66180    0.22650    0.22650   1.00
O2       0.72650    0.16180    0.22650   1.00
O2       0.72650    0.22650    0.16180   1.00
C1       0.75000    0.25000    0.35520   1.00
C1       0.75000    0.35520    0.25000   1.00
C1       0.64480    0.25000    0.25000   1.00
C1       0.85520    0.25000    0.25000   1.00
C1       0.75000    0.14480    0.25000   1.00
C1       0.75000    0.25000    0.14480   1.00
O1       0.25000    0.25000    0.25000   1.00
Zn1      0.28280    0.21720    0.21720   1.00
Zn1      0.21720    0.28280    0.21720   1.00
Zn1      0.21720    0.21720    0.28280   1.00
Zn1      0.28280    0.28280    0.28280   1.00
O2       0.27350    0.22650    0.16180   1.00
O2       0.27350    0.16180    0.22650   1.00
O2       0.33820    0.22650    0.22650   1.00
O2       0.22650    0.27350    0.16180   1.00
O2       0.16180    0.27350    0.22650   1.00
O2       0.22650    0.33820    0.22650   1.00
O2       0.22650    0.16180    0.27350   1.00
O2       0.16180    0.22650    0.27350   1.00
O2       0.22650    0.22650    0.33820   1.00
O2       0.33820    0.27350    0.27350   1.00
O2       0.27350    0.33820    0.27350   1.00
O2       0.27350    0.27350    0.33820   1.00
C1       0.25000    0.25000    0.14480   1.00
C1       0.25000    0.14480    0.25000   1.00
C1       0.35520    0.25000    0.25000   1.00
C1       0.14480    0.25000    0.25000   1.00
C1       0.25000    0.35520    0.25000   1.00
C1       0.25000    0.25000    0.35520   1.00
O1       0.75000    0.75000    0.25000   1.00
Zn1      0.78280    0.71720    0.21720   1.00
Zn1      0.71720    0.78280    0.21720   1.00
Zn1      0.71720    0.71720    0.28280   1.00
Zn1      0.78280    0.78280    0.28280   1.00
O2       0.77350    0.72650    0.16180   1.00
O2       0.77350    0.66180    0.22650   1.00
O2       0.83820    0.72650    0.22650   1.00
O2       0.72650    0.77350    0.16180   1.00
O2       0.66180    0.77350    0.22650   1.00
O2       0.72650    0.83820    0.22650   1.00
O2       0.72650    0.66180    0.27350   1.00
O2       0.66180    0.72650    0.27350   1.00
O2       0.72650    0.72650    0.33820   1.00
O2       0.83820    0.77350    0.27350   1.00
O2       0.77350    0.83820    0.27350   1.00
O2       0.77350    0.77350    0.33820   1.00
C1       0.75000    0.75000    0.14480   1.00
C1       0.75000    0.64480    0.25000   1.00
C1       0.85520    0.75000    0.25000   1.00
C1       0.64480    0.75000    0.25000   1.00
C1       0.75000    0.85520    0.25000   1.00
C1       0.75000    0.75000    0.35520   1.00
O1       0.75000    0.25000    0.75000   1.00
Zn1      0.78280    0.21720    0.71720   1.00
Zn1      0.71720    0.28280    0.71720   1.00
Zn1      0.71720    0.21720    0.78280   1.00
Zn1      0.78280    0.28280    0.78280   1.00
O2       0.77350    0.22650    0.66180   1.00
O2       0.77350    0.16180    0.72650   1.00
O2       0.83820    0.22650    0.72650   1.00
O2       0.72650    0.27350    0.66180   1.00
O2       0.66180    0.27350    0.72650   1.00
O2       0.72650    0.33820    0.72650   1.00
O2       0.72650    0.16180    0.77350   1.00
O2       0.66180    0.22650    0.77350   1.00
O2       0.72650    0.22650    0.83820   1.00
O2       0.83820    0.27350    0.77350   1.00
O2       0.77350    0.33820    0.77350   1.00
O2       0.77350    0.27350    0.83820   1.00
C1       0.75000    0.25000    0.64480   1.00
C1       0.75000    0.14480    0.75000   1.00
C1       0.85520    0.25000    0.75000   1.00
C1       0.64480    0.25000    0.75000   1.00
C1       0.75000    0.35520    0.75000   1.00
C1       0.75000    0.25000    0.85520   1.00
O1       0.25000    0.75000    0.75000   1.00
Zn1      0.28280    0.71720    0.71720   1.00
Zn1      0.21720    0.78280    0.71720   1.00
Zn1      0.21720    0.71720    0.78280   1.00
Zn1      0.28280    0.78280    0.78280   1.00
O2       0.27350    0.72650    0.66180   1.00
O2       0.27350    0.66180    0.72650   1.00
O2       0.33820    0.72650    0.72650   1.00
O2       0.22650    0.77350    0.66180   1.00
O2       0.16180    0.77350    0.72650   1.00
O2       0.22650    0.83820    0.72650   1.00
O2       0.22650    0.66180    0.77350   1.00
O2       0.16180    0.72650    0.77350   1.00
O2       0.22650    0.72650    0.83820   1.00
O2       0.33820    0.77350    0.77350   1.00
O2       0.27350    0.83820    0.77350   1.00
O2       0.27350    0.77350    0.83820   1.00
C1       0.25000    0.75000    0.64480   1.00
C1       0.25000    0.64480    0.75000   1.00
C1       0.35520    0.75000    0.75000   1.00
C1       0.14480    0.75000    0.75000   1.00
C1       0.25000    0.85520    0.75000   1.00
C1       0.25000    0.75000    0.85520   1.00
O1       0.91500    0.91500    0.91500   1.00
Zn1      0.88220    0.94780    0.94780   1.00
Zn1      0.94780    0.88220    0.94780   1.00
Zn1      0.94780    0.94780    0.88220   1.00
Zn1      0.88220    0.88220    0.88220   1.00
O2       0.89150    0.93850    1.00320   1.00
O2       0.89150    1.00320    0.93850   1.00
O2       0.82680    0.93850    0.93850   1.00
O2       0.93850    0.89150    1.00320   1.00
O2       1.00320    0.89150    0.93850   1.00
O2       0.93850    0.82680    0.93850   1.00
O2       0.93850    1.00320    0.89150   1.00
O2       1.00320    0.93850    0.89150   1.00
O2       0.93850    0.93850    0.82680   1.00
O2       0.82680    0.89150    0.89150   1.00
O2       0.89150    0.82680    0.89150   1.00
O2       0.89150    0.89150    0.82680   1.00
C1       0.91500    0.91500    1.02020   1.00
C1       0.91500    1.02020    0.91500   1.00
C1       0.80980    0.91500    0.91500   1.00
C1       1.02020    0.91500    0.91500   1.00
C1       0.91500    0.80980    0.91500   1.00
C1       0.91500    0.91500    0.80980   1.00
O1       0.41500    0.41500    0.91500   1.00
Zn1      0.38220    0.44780    0.94780   1.00
Zn1      0.44780    0.38220    0.94780   1.00
Zn1      0.44780    0.44780    0.88220   1.00
Zn1      0.38220    0.38220    0.88220   1.00
O2       0.39150    0.43850    1.00320   1.00
O2       0.39150    0.50320    0.93850   1.00
O2       0.32680    0.43850    0.93850   1.00
O2       0.43850    0.39150    1.00320   1.00
O2       0.50320    0.39150    0.93850   1.00
O2       0.43850    0.32680    0.93850   1.00
O2       0.43850    0.50320    0.89150   1.00
O2       0.50320    0.43850    0.89150   1.00
O2       0.43850    0.43850    0.82680   1.00
O2       0.32680    0.39150    0.89150   1.00
O2       0.39150    0.32680    0.89150   1.00
O2       0.39150    0.39150    0.82680   1.00
C1       0.41500    0.41500    1.02020   1.00
C1       0.41500    0.52020    0.91500   1.00
C1       0.30980    0.41500    0.91500   1.00
C1       0.52020    0.41500    0.91500   1.00
C1       0.41500    0.30980    0.91500   1.00
C1       0.41500    0.41500    0.80980   1.00
O1       0.41500    0.91500    0.41500   1.00
Zn1      0.38220    0.94780    0.44780   1.00
Zn1      0.44780    0.88220    0.44780   1.00
Zn1      0.44780    0.94780    0.38220   1.00
Zn1      0.38220    0.88220    0.38220   1.00
O2       0.39150    0.93850    0.50320   1.00
O2       0.39150    1.00320    0.43850   1.00
O2       0.32680    0.93850    0.43850   1.00
O2       0.43850    0.89150    0.50320   1.00
O2       0.50320    0.89150    0.43850   1.00
O2       0.43850    0.82680    0.43850   1.00
O2       0.43850    1.00320    0.39150   1.00
O2       0.50320    0.93850    0.39150   1.00
O2       0.43850    0.93850    0.32680   1.00
O2       0.32680    0.89150    0.39150   1.00
O2       0.39150    0.82680    0.39150   1.00
O2       0.39150    0.89150    0.32680   1.00
C1       0.41500    0.91500    0.52020   1.00
C1       0.41500    1.02020    0.41500   1.00
C1       0.30980    0.91500    0.41500   1.00
C1       0.52020    0.91500    0.41500   1.00
C1       0.41500    0.80980    0.41500   1.00
C1       0.41500    0.91500    0.30980   1.00
O1       0.91500    0.41500    0.41500   1.00
Zn1      0.88220    0.44780    0.44780   1.00
Zn1      0.94780    0.38220    0.44780   1.00
Zn1      0.94780    0.44780    0.38220   1.00
Zn1      0.88220    0.38220    0.38220   1.00
O2       0.89150    0.43850    0.50320   1.00
O2       0.89150    0.50320    0.43850   1.00
O2       0.82680    0.43850    0.43850   1.00
O2       0.93850    0.39150    0.50320   1.00
O2       1.00320    0.39150    0.43850   1.00
O2       0.93850    0.32680    0.43850   1.00
O2       0.93850    0.50320    0.39150   1.00
O2       1.00320    0.43850    0.39150   1.00
O2       0.93850    0.43850    0.32680   1.00
O2       0.82680    0.39150    0.39150   1.00
O2       0.89150    0.32680    0.39150   1.00
O2       0.89150    0.39150    0.32680   1.00
C1       0.91500    0.41500    0.52020   1.00
C1       0.91500    0.52020    0.41500   1.00
C1       0.80980    0.41500    0.41500   1.00
C1       1.02020    0.41500    0.41500   1.00
C1       0.91500    0.30980    0.41500   1.00
C1       0.91500    0.41500    0.30980   1.00
O1       0.41500    0.41500    0.41500   1.00
Zn1      0.44780    0.38220    0.38220   1.00
Zn1      0.38220    0.44780    0.38220   1.00
Zn1      0.38220    0.38220    0.44780   1.00
Zn1      0.44780    0.44780    0.44780   1.00
O2       0.43850    0.39150    0.32680   1.00
O2       0.43850    0.32680    0.39150   1.00
O2       0.50320    0.39150    0.39150   1.00
O2       0.39150    0.43850    0.32680   1.00
O2       0.32680    0.43850    0.39150   1.00
O2       0.39150    0.50320    0.39150   1.00
O2       0.39150    0.32680    0.43850   1.00
O2       0.32680    0.39150    0.43850   1.00
O2       0.39150    0.39150    0.50320   1.00
O2       0.50320    0.43850    0.43850   1.00
O2       0.43850    0.50320    0.43850   1.00
O2       0.43850    0.43850    0.50320   1.00
C1       0.41500    0.41500    0.30980   1.00
C1       0.41500    0.30980    0.41500   1.00
C1       0.52020    0.41500    0.41500   1.00
C1       0.30980    0.41500    0.41500   1.00
C1       0.41500    0.52020    0.41500   1.00
C1       0.41500    0.41500    0.52020   1.00
O1       0.91500    0.91500    0.41500   1.00
Zn1      0.94780    0.88220    0.38220   1.00
Zn1      0.88220    0.94780    0.38220   1.00
Zn1      0.88220    0.88220    0.44780   1.00
Zn1      0.94780    0.94780    0.44780   1.00
O2       0.93850    0.89150    0.32680   1.00
O2       0.93850    0.82680    0.39150   1.00
O2       1.00320    0.89150    0.39150   1.00
O2       0.89150    0.93850    0.32680   1.00
O2       0.82680    0.93850    0.39150   1.00
O2       0.89150    1.00320    0.39150   1.00
O2       0.89150    0.82680    0.43850   1.00
O2       0.82680    0.89150    0.43850   1.00
O2       0.89150    0.89150    0.50320   1.00
O2       1.00320    0.93850    0.43850   1.00
O2       0.93850    1.00320    0.43850   1.00
O2       0.93850    0.93850    0.50320   1.00
C1       0.91500    0.91500    0.30980   1.00
C1       0.91500    0.80980    0.41500   1.00
C1       1.02020    0.91500    0.41500   1.00
C1       0.80980    0.91500    0.41500   1.00
C1       0.91500    1.02020    0.41500   1.00
C1       0.91500    0.91500    0.52020   1.00
O1       0.91500    0.41500    0.91500   1.00
Zn1      0.94780    0.38220    0.88220   1.00
Zn1      0.88220    0.44780    0.88220   1.00
Zn1      0.88220    0.38220    0.94780   1.00
Zn1      0.94780    0.44780    0.94780   1.00
O2       0.93850    0.39150    0.82680   1.00
O2       0.93850    0.32680    0.89150   1.00
O2       1.00320    0.39150    0.89150   1.00
O2       0.89150    0.43850    0.82680   1.00
O2       0.82680    0.43850    0.89150   1.00
O2       0.89150    0.50320    0.89150   1.00
O2       0.89150    0.32680    0.93850   1.00
O2       0.82680    0.39150    0.93850   1.00
O2       0.89150    0.39150    1.00320   1.00
O2       1.00320    0.43850    0.93850   1.00
O2       0.93850    0.50320    0.93850   1.00
O2       0.93850    0.43850    1.00320   1.00
C1       0.91500    0.41500    0.80980   1.00
C1       0.91500    0.30980    0.91500   1.00
C1       1.02020    0.41500    0.91500   1.00
C1       0.80980    0.41500    0.91500   1.00
C1       0.91500    0.52020    0.91500   1.00
C1       0.91500    0.41500    1.02020   1.00
O1       0.41500    0.91500    0.91500   1.00
Zn1      0.44780    0.88220    0.88220   1.00
Zn1      0.38220    0.94780    0.88220   1.00
Zn1      0.38220    0.88220    0.94780   1.00
Zn1      0.44780    0.94780    0.94780   1.00
O2       0.43850    0.89150    0.82680   1.00
O2       0.43850    0.82680    0.89150   1.00
O2       0.50320    0.89150    0.89150   1.00
O2       0.39150    0.93850    0.82680   1.00
O2       0.32680    0.93850    0.89150   1.00
O2       0.39150    1.00320    0.89150   1.00
O2       0.39150    0.82680    0.93850   1.00
O2       0.32680    0.89150    0.93850   1.00
O2       0.39150    0.89150    1.00320   1.00
O2       0.50320    0.93850    0.93850   1.00
O2       0.43850    1.00320    0.93850   1.00
O2       0.43850    0.93850    1.00320   1.00
C1       0.41500    0.91500    0.80980   1.00
C1       0.41500    0.80980    0.91500   1.00
C1       0.52020    0.91500    0.91500   1.00
C1       0.30980    0.91500    0.91500   1.00
C1       0.41500    1.02020    0.91500   1.00
C1       0.41500    0.91500    1.02020   1.00
C4       0.74994    0.74962    0.97915   1.00
C4       0.75006    0.75038    1.02085   1.00
C3       0.71552    0.74231    0.95751   1.00
C3       0.71927    0.76729    1.04252   1.00
C3       0.78425    0.75703    0.95738   1.00
C3       0.78078    0.73335    1.04259   1.00
C2       0.74984    0.75003    0.89482   1.00
C2       0.74984    0.75003    1.10518   1.00
C3a      0.71532    0.74247    0.91599   1.00
C3       0.71924    0.76710    1.08382   1.00
C3       0.78414    0.75722    0.91611   1.00
C3a      0.78086    0.73309    1.08403   1.00
H1       0.68866    0.73614    0.97294   1.00
H1       0.69516    0.78112    1.02750   1.00
C5       0.67813    0.73437    0.89410   1.00
H1       0.69514    0.78039    1.09933   1.00
H1       0.81095    0.76331    0.90056   1.00
C5       0.81447    0.71452    1.10535   1.00
H1       0.80451    0.71903    1.02747   1.00
H1       0.81132    0.76353    0.97230   1.00
H2       0.84152    0.73100    1.09837   1.00
H2       0.81028    0.71620    1.13747   1.00
N1       0.81868    0.67360    1.09395   1.00
C6       0.82757    0.66023    1.05810   1.00
C6       0.81473    0.64245    1.11757   1.00
C6       0.82915    0.62002    1.05873   1.00
C6       0.82098    0.60871    1.09656   1.00
H3       0.83267    0.67848    1.03281   1.00
H3       0.80759    0.64405    1.14831   1.00
H3       0.83560    0.60104    1.03436   1.00
H3       0.81975    0.57919    1.10758   1.00
H2       0.68403    0.73643    0.86228   1.00
H2       0.66736    0.70438    0.90001   1.00
N1       0.64802    0.76236    0.90523   1.00
C6       0.62876    0.78967    0.88078   1.00
C6       0.63157    0.76786    0.94285   1.00
C6       0.60219    0.81049    0.90277   1.00
C6       0.60392    0.79711    0.94091   1.00
H3       0.63429    0.79343    0.84992   1.00
H3       0.63989    0.75182    0.96876   1.00
H3       0.58331    0.83337    0.89205   1.00
H3       0.58667    0.80780    0.96505   1.00
C4       0.74962    0.97915    0.74994   1.00
C4       0.75038    1.02085    0.75006   1.00
C3       0.74231    0.95751    0.71552   1.00
C3       0.76729    1.04252    0.71927   1.00
C3       0.75703    0.95738    0.78425   1.00
C3       0.73335    1.04259    0.78078   1.00
C2       0.75003    0.89482    0.74984   1.00
C2       0.75003    1.10518    0.74984   1.00
C3a      0.74247    0.91599    0.71532   1.00
C3       0.76710    1.08382    0.71924   1.00
C3       0.75722    0.91611    0.78414   1.00
C3a      0.73309    1.08403    0.78086   1.00
H1       0.73614    0.97294    0.68866   1.00
H1       0.78112    1.02750    0.69516   1.00
C5       0.73437    0.89410    0.67813   1.00
H1       0.78039    1.09933    0.69514   1.00
H1       0.76331    0.90056    0.81095   1.00
C5       0.71452    1.10535    0.81447   1.00
H1       0.71903    1.02747    0.80451   1.00
H1       0.76353    0.97230    0.81132   1.00
H2       0.73100    1.09837    0.84152   1.00
H2       0.71620    1.13747    0.81028   1.00
N1       0.67360    1.09395    0.81868   1.00
C6       0.66023    1.05810    0.82757   1.00
C6       0.64245    1.11757    0.81473   1.00
C6       0.62002    1.05873    0.82915   1.00
C6       0.60871    1.09656    0.82098   1.00
H3       0.67848    1.03281    0.83267   1.00
H3       0.64405    1.14831    0.80759   1.00
H3       0.60104    1.03436    0.83560   1.00
H3       0.57919    1.10758    0.81975   1.00
H2       0.73643    0.86228    0.68403   1.00
H2       0.70438    0.90001    0.66736   1.00
N1       0.76236    0.90523    0.64802   1.00
C6       0.78967    0.88078    0.62876   1.00
C6       0.76786    0.94285    0.63157   1.00
C6       0.81049    0.90277    0.60219   1.00
C6       0.79711    0.94091    0.60392   1.00
H3       0.79343    0.84992    0.63429   1.00
H3       0.75182    0.96876    0.63989   1.00
H3       0.83337    0.89205    0.58331   1.00
H3       0.80780    0.96505    0.58667   1.00
C4       0.52085    0.74994    0.75038   1.00
C4       0.47915    0.75006    0.74962   1.00
C3       0.54249    0.71552    0.75769   1.00
C3       0.45748    0.71927    0.73271   1.00
C3       0.54262    0.78425    0.74297   1.00
C3       0.45741    0.78078    0.76665   1.00
C2       0.60518    0.74984    0.74997   1.00
C2       0.39482    0.74984    0.74997   1.00
C3a      0.58401    0.71532    0.75753   1.00
C3       0.41618    0.71924    0.73290   1.00
C3       0.58389    0.78414    0.74278   1.00
C3a      0.41597    0.78086    0.76691   1.00
H1       0.52706    0.68866    0.76386   1.00
H1       0.47250    0.69516    0.71888   1.00
C5       0.60590    0.67813    0.76563   1.00
H1       0.40067    0.69514    0.71961   1.00
H1       0.59944    0.81095    0.73669   1.00
C5       0.39465    0.81447    0.78548   1.00
H1       0.47253    0.80451    0.78097   1.00
H1       0.52770    0.81132    0.73647   1.00
H2       0.40163    0.84152    0.76900   1.00
H2       0.36253    0.81028    0.78380   1.00
N1       0.40605    0.81868    0.82640   1.00
C6       0.44190    0.82757    0.83977   1.00
C6       0.38243    0.81473    0.85755   1.00
C6       0.44127    0.82915    0.87998   1.00
C6       0.40344    0.82098    0.89129   1.00
H3       0.46719    0.83267    0.82152   1.00
H3       0.35169    0.80759    0.85595   1.00
H3       0.46564    0.83560    0.89896   1.00
H3       0.39242    0.81975    0.92081   1.00
H2       0.63772    0.68403    0.76357   1.00
H2       0.59999    0.66736    0.79562   1.00
N1       0.59477    0.64802    0.73764   1.00
C6       0.61922    0.62876    0.71033   1.00
C6       0.55715    0.63157    0.73214   1.00
C6       0.59723    0.60219    0.68951   1.00
C6       0.55909    0.60392    0.70289   1.00
H3       0.65008    0.63429    0.70657   1.00
H3       0.53124    0.63989    0.74818   1.00
H3       0.60795    0.58331    0.66663   1.00
H3       0.53495    0.58667    0.69220   1.00
C4       0.97915    0.74994    0.74962   1.00
C4       1.02085    0.75006    0.75038   1.00
C3       0.95751    0.71552    0.74231   1.00
C3       1.04252    0.71927    0.76729   1.00
C3       0.95738    0.78425    0.75703   1.00
C3       1.04259    0.78078    0.73335   1.00
C2       0.89482    0.74984    0.75003   1.00
C2       1.10518    0.74984    0.75003   1.00
C3a      0.91599    0.71532    0.74247   1.00
C3       1.08382    0.71924    0.76710   1.00
C3       0.91611    0.78414    0.75722   1.00
C3a      1.08403    0.78086    0.73309   1.00
H1       0.97294    0.68866    0.73614   1.00
H1       1.02750    0.69516    0.78112   1.00
C5       0.89410    0.67813    0.73437   1.00
H1       1.09933    0.69514    0.78039   1.00
H1       0.90056    0.81095    0.76331   1.00
C5       1.10535    0.81447    0.71452   1.00
H1       1.02747    0.80451    0.71903   1.00
H1       0.97230    0.81132    0.76353   1.00
H2       1.09837    0.84152    0.73100   1.00
H2       1.13747    0.81028    0.71620   1.00
N1       1.09395    0.81868    0.67360   1.00
C6       1.05810    0.82757    0.66023   1.00
C6       1.11757    0.81473    0.64245   1.00
C6       1.05873    0.82915    0.62002   1.00
C6       1.09656    0.82098    0.60871   1.00
H3       1.03281    0.83267    0.67848   1.00
H3       1.14831    0.80759    0.64405   1.00
H3       1.03436    0.83560    0.60104   1.00
H3       1.10758    0.81975    0.57919   1.00
H2       0.86228    0.68403    0.73643   1.00
H2       0.90001    0.66736    0.70438   1.00
N1       0.90523    0.64802    0.76236   1.00
C6       0.88078    0.62876    0.78967   1.00
C6       0.94285    0.63157    0.76786   1.00
C6       0.90277    0.60219    0.81049   1.00
C6       0.94091    0.60392    0.79711   1.00
H3       0.84992    0.63429    0.79343   1.00
H3       0.96876    0.63989    0.75182   1.00
H3       0.89205    0.58331    0.83337   1.00
H3       0.96505    0.58667    0.80780   1.00
C4       0.75038    0.52085    0.74994   1.00
C4       0.74962    0.47915    0.75006   1.00
C3       0.75769    0.54249    0.71552   1.00
C3       0.73271    0.45748    0.71927   1.00
C3       0.74297    0.54262    0.78425   1.00
C3       0.76665    0.45741    0.78078   1.00
C2       0.74997    0.60518    0.74984   1.00
C2       0.74997    0.39482    0.74984   1.00
C3a      0.75753    0.58401    0.71532   1.00
C3       0.73290    0.41618    0.71924   1.00
C3       0.74278    0.58389    0.78414   1.00
C3a      0.76691    0.41597    0.78086   1.00
H1       0.76386    0.52706    0.68866   1.00
H1       0.71888    0.47250    0.69516   1.00
C5       0.76563    0.60590    0.67813   1.00
H1       0.71961    0.40067    0.69514   1.00
H1       0.73669    0.59944    0.81095   1.00
C5       0.78548    0.39465    0.81447   1.00
H1       0.78097    0.47253    0.80451   1.00
H1       0.73647    0.52770    0.81132   1.00
H2       0.76900    0.40163    0.84152   1.00
H2       0.78380    0.36253    0.81028   1.00
N1       0.82640    0.40605    0.81868   1.00
C6       0.83977    0.44190    0.82757   1.00
C6       0.85755    0.38243    0.81473   1.00
C6       0.87998    0.44127    0.82915   1.00
C6       0.89129    0.40344    0.82098   1.00
H3       0.82152    0.46719    0.83267   1.00
H3       0.85595    0.35169    0.80759   1.00
H3       0.89896    0.46564    0.83560   1.00
H3       0.92081    0.39242    0.81975   1.00
H2       0.76357    0.63772    0.68403   1.00
H2       0.79562    0.59999    0.66736   1.00
N1       0.73764    0.59477    0.64802   1.00
C6       0.71033    0.61922    0.62876   1.00
C6       0.73214    0.55715    0.63157   1.00
C6       0.68951    0.59723    0.60219   1.00
C6       0.70289    0.55909    0.60392   1.00
H3       0.70657    0.65008    0.63429   1.00
H3       0.74818    0.53124    0.63989   1.00
H3       0.66663    0.60795    0.58331   1.00
H3       0.69220    0.53495    0.58667   1.00
C4       0.74994    0.75038    0.52085   1.00
C4       0.75006    0.74962    0.47915   1.00
C3       0.71552    0.75769    0.54249   1.00
C3       0.71927    0.73271    0.45748   1.00
C3       0.78425    0.74297    0.54262   1.00
C3       0.78078    0.76665    0.45741   1.00
C2       0.74984    0.74997    0.60518   1.00
C2       0.74984    0.74997    0.39482   1.00
C3a      0.71532    0.75753    0.58401   1.00
C3       0.71924    0.73290    0.41618   1.00
C3       0.78414    0.74278    0.58389   1.00
C3a      0.78086    0.76691    0.41597   1.00
H1       0.68866    0.76386    0.52706   1.00
H1       0.69516    0.71888    0.47250   1.00
C5       0.67813    0.76563    0.60590   1.00
H1       0.69514    0.71961    0.40067   1.00
H1       0.81095    0.73669    0.59944   1.00
C5       0.81447    0.78548    0.39465   1.00
H1       0.80451    0.78097    0.47253   1.00
H1       0.81132    0.73647    0.52770   1.00
H2       0.84152    0.76900    0.40163   1.00
H2       0.81028    0.78380    0.36253   1.00
N1       0.81868    0.82640    0.40605   1.00
C6       0.82757    0.83977    0.44190   1.00
C6       0.81473    0.85755    0.38243   1.00
C6       0.82915    0.87998    0.44127   1.00
C6       0.82098    0.89129    0.40344   1.00
H3       0.83267    0.82152    0.46719   1.00
H3       0.80759    0.85595    0.35169   1.00
H3       0.83560    0.89896    0.46564   1.00
H3       0.81975    0.92081    0.39242   1.00
H2       0.68403    0.76357    0.63772   1.00
H2       0.66736    0.79562    0.59999   1.00
N1       0.64802    0.73764    0.59477   1.00
C6       0.62876    0.71033    0.61922   1.00
C6       0.63157    0.73214    0.55715   1.00
C6       0.60219    0.68951    0.59723   1.00
C6       0.60392    0.70289    0.55909   1.00
H3       0.63429    0.70657    0.65008   1.00
H3       0.63989    0.74818    0.53124   1.00
H3       0.58331    0.66663    0.60795   1.00
H3       0.58667    0.69220    0.53495   1.00
C4       0.24994    0.24962    0.97915   1.00
C4       0.25006    0.25038    1.02085   1.00
C3       0.21552    0.24231    0.95751   1.00
C3       0.21927    0.26729    1.04252   1.00
C3       0.28425    0.25703    0.95738   1.00
C3       0.28078    0.23335    1.04259   1.00
C2       0.24984    0.25003    0.89482   1.00
C2       0.24984    0.25003    1.10518   1.00
C3a      0.21532    0.24247    0.91599   1.00
C3       0.21924    0.26710    1.08382   1.00
C3       0.28414    0.25722    0.91611   1.00
C3a      0.28086    0.23309    1.08403   1.00
H1       0.18866    0.23614    0.97294   1.00
H1       0.19516    0.28112    1.02750   1.00
C5       0.17813    0.23437    0.89410   1.00
H1       0.19514    0.28039    1.09933   1.00
H1       0.31095    0.26331    0.90056   1.00
C5       0.31447    0.21452    1.10535   1.00
H1       0.30451    0.21903    1.02747   1.00
H1       0.31132    0.26353    0.97230   1.00
H2       0.34152    0.23100    1.09837   1.00
H2       0.31028    0.21620    1.13747   1.00
N1       0.31868    0.17360    1.09395   1.00
C6       0.32757    0.16023    1.05810   1.00
C6       0.31473    0.14245    1.11757   1.00
C6       0.32915    0.12002    1.05873   1.00
C6       0.32098    0.10871    1.09656   1.00
H3       0.33267    0.17848    1.03281   1.00
H3       0.30759    0.14405    1.14831   1.00
H3       0.33560    0.10104    1.03436   1.00
H3       0.31975    0.07919    1.10758   1.00
H2       0.18403    0.23643    0.86228   1.00
H2       0.16736    0.20438    0.90001   1.00
N1       0.14802    0.26236    0.90523   1.00
C6       0.12876    0.28967    0.88078   1.00
C6       0.13157    0.26786    0.94285   1.00
C6       0.10219    0.31049    0.90277   1.00
C6       0.10392    0.29711    0.94091   1.00
H3       0.13429    0.29343    0.84992   1.00
H3       0.13989    0.25182    0.96876   1.00
H3       0.08331    0.33337    0.89205   1.00
H3       0.08667    0.30780    0.96505   1.00
C4       0.24962    0.47915    0.74994   1.00
C4       0.25038    0.52085    0.75006   1.00
C3       0.24231    0.45751    0.71552   1.00
C3       0.26729    0.54252    0.71927   1.00
C3       0.25703    0.45738    0.78425   1.00
C3       0.23335    0.54259    0.78078   1.00
C2       0.25003    0.39482    0.74984   1.00
C2       0.25003    0.60518    0.74984   1.00
C3a      0.24247    0.41599    0.71532   1.00
C3       0.26710    0.58382    0.71924   1.00
C3       0.25722    0.41611    0.78414   1.00
C3a      0.23309    0.58403    0.78086   1.00
H1       0.23614    0.47294    0.68866   1.00
H1       0.28112    0.52750    0.69516   1.00
C5       0.23437    0.39410    0.67813   1.00
H1       0.28039    0.59933    0.69514   1.00
H1       0.26331    0.40056    0.81095   1.00
C5       0.21452    0.60535    0.81447   1.00
H1       0.21903    0.52747    0.80451   1.00
H1       0.26353    0.47230    0.81132   1.00
H2       0.23100    0.59837    0.84152   1.00
H2       0.21620    0.63747    0.81028   1.00
N1       0.17360    0.59395    0.81868   1.00
C6       0.16023    0.55810    0.82757   1.00
C6       0.14245    0.61757    0.81473   1.00
C6       0.12002    0.55873    0.82915   1.00
C6       0.10871    0.59656    0.82098   1.00
H3       0.17848    0.53281    0.83267   1.00
H3       0.14405    0.64831    0.80759   1.00
H3       0.10104    0.53436    0.83560   1.00
H3       0.07919    0.60758    0.81975   1.00
H2       0.23643    0.36228    0.68403   1.00
H2       0.20438    0.40001    0.66736   1.00
N1       0.26236    0.40523    0.64802   1.00
C6       0.28967    0.38078    0.62876   1.00
C6       0.26786    0.44285    0.63157   1.00
C6       0.31049    0.40277    0.60219   1.00
C6       0.29711    0.44091    0.60392   1.00
H3       0.29343    0.34992    0.63429   1.00
H3       0.25182    0.46876    0.63989   1.00
H3       0.33337    0.39205    0.58331   1.00
H3       0.30780    0.46505    0.58667   1.00
C4       0.02085    0.24994    0.75038   1.00
C4       -0.02085   0.25006    0.74962   1.00
C3       0.04249    0.21552    0.75769   1.00
C3       -0.04252   0.21927    0.73271   1.00
C3       0.04262    0.28425    0.74297   1.00
C3       -0.04259   0.28078    0.76665   1.00
C2       0.10518    0.24984    0.74997   1.00
C2       -0.10518   0.24984    0.74997   1.00
C3a      0.08401    0.21532    0.75753   1.00
C3       -0.08382   0.21924    0.73290   1.00
C3       0.08389    0.28414    0.74278   1.00
C3a      -0.08403   0.28086    0.76691   1.00
H1       0.02706    0.18866    0.76386   1.00
H1       -0.02750   0.19516    0.71888   1.00
C5       0.10590    0.17813    0.76563   1.00
H1       -0.09933   0.19514    0.71961   1.00
H1       0.09944    0.31095    0.73669   1.00
C5       -0.10535   0.31447    0.78548   1.00
H1       -0.02747   0.30451    0.78097   1.00
H1       0.02770    0.31132    0.73647   1.00
H2       -0.09837   0.34152    0.76900   1.00
H2       -0.13747   0.31028    0.78380   1.00
N1       -0.09395   0.31868    0.82640   1.00
C6       -0.05810   0.32757    0.83977   1.00
C6       -0.11757   0.31473    0.85755   1.00
C6       -0.05873   0.32915    0.87998   1.00
C6       -0.09656   0.32098    0.89129   1.00
H3       -0.03281   0.33267    0.82152   1.00
H3       -0.14831   0.30759    0.85595   1.00
H3       -0.03436   0.33560    0.89896   1.00
H3       -0.10758   0.31975    0.92081   1.00
H2       0.13772    0.18403    0.76357   1.00
H2       0.09999    0.16736    0.79562   1.00
N1       0.09477    0.14802    0.73764   1.00
C6       0.11922    0.12876    0.71033   1.00
C6       0.05715    0.13157    0.73214   1.00
C6       0.09723    0.10219    0.68951   1.00
C6       0.05909    0.10392    0.70289   1.00
H3       0.15008    0.13429    0.70657   1.00
H3       0.03124    0.13989    0.74818   1.00
H3       0.10795    0.08331    0.66663   1.00
H3       0.03495    0.08667    0.69220   1.00
C4       0.47915    0.24994    0.74962   1.00
C4       0.52085    0.25006    0.75038   1.00
C3       0.45751    0.21552    0.74231   1.00
C3       0.54252    0.21927    0.76729   1.00
C3       0.45738    0.28425    0.75703   1.00
C3       0.54259    0.28078    0.73335   1.00
C2       0.39482    0.24984    0.75003   1.00
C2       0.60518    0.24984    0.75003   1.00
C3a      0.41599    0.21532    0.74247   1.00
C3       0.58382    0.21924    0.76710   1.00
C3       0.41611    0.28414    0.75722   1.00
C3a      0.58403    0.28086    0.73309   1.00
H1       0.47294    0.18866    0.73614   1.00
H1       0.52750    0.19516    0.78112   1.00
C5       0.39410    0.17813    0.73437   1.00
H1       0.59933    0.19514    0.78039   1.00
H1       0.40056    0.31095    0.76331   1.00
C5       0.60535    0.31447    0.71452   1.00
H1       0.52747    0.30451    0.71903   1.00
H1       0.47230    0.31132    0.76353   1.00
H2       0.59837    0.34152    0.73100   1.00
H2       0.63747    0.31028    0.71620   1.00
N1       0.59395    0.31868    0.67360   1.00
C6       0.55810    0.32757    0.66023   1.00
C6       0.61757    0.31473    0.64245   1.00
C6       0.55873    0.32915    0.62002   1.00
C6       0.59656    0.32098    0.60871   1.00
H3       0.53281    0.33267    0.67848   1.00
H3       0.64831    0.30759    0.64405   1.00
H3       0.53436    0.33560    0.60104   1.00
H3       0.60758    0.31975    0.57919   1.00
H2       0.36228    0.18403    0.73643   1.00
H2       0.40001    0.16736    0.70438   1.00
N1       0.40523    0.14802    0.76236   1.00
C6       0.38078    0.12876    0.78967   1.00
C6       0.44285    0.13157    0.76786   1.00
C6       0.40277    0.10219    0.81049   1.00
C6       0.44091    0.10392    0.79711   1.00
H3       0.34992    0.13429    0.79343   1.00
H3       0.46876    0.13989    0.75182   1.00
H3       0.39205    0.08331    0.83337   1.00
H3       0.46505    0.08667    0.80780   1.00
C4       0.25038    0.02085    0.74994   1.00
C4       0.24962    -0.02085   0.75006   1.00
C3       0.25769    0.04249    0.71552   1.00
C3       0.23271    -0.04252   0.71927   1.00
C3       0.24297    0.04262    0.78425   1.00
C3       0.26665    -0.04259   0.78078   1.00
C2       0.24997    0.10518    0.74984   1.00
C2       0.24997    -0.10518   0.74984   1.00
C3a      0.25753    0.08401    0.71532   1.00
C3       0.23290    -0.08382   0.71924   1.00
C3       0.24278    0.08389    0.78414   1.00
C3a      0.26691    -0.08403   0.78086   1.00
H1       0.26386    0.02706    0.68866   1.00
H1       0.21888    -0.02750   0.69516   1.00
C5       0.26563    0.10590    0.67813   1.00
H1       0.21961    -0.09933   0.69514   1.00
H1       0.23669    0.09944    0.81095   1.00
C5       0.28548    -0.10535   0.81447   1.00
H1       0.28097    -0.02747   0.80451   1.00
H1       0.23647    0.02770    0.81132   1.00
H2       0.26900    -0.09837   0.84152   1.00
H2       0.28380    -0.13747   0.81028   1.00
N1       0.32640    -0.09395   0.81868   1.00
C6       0.33977    -0.05810   0.82757   1.00
C6       0.35755    -0.11757   0.81473   1.00
C6       0.37998    -0.05873   0.82915   1.00
C6       0.39129    -0.09656   0.82098   1.00
H3       0.32152    -0.03281   0.83267   1.00
H3       0.35595    -0.14831   0.80759   1.00
H3       0.39896    -0.03436   0.83560   1.00
H3       0.42081    -0.10758   0.81975   1.00
H2       0.26357    0.13772    0.68403   1.00
H2       0.29562    0.09999    0.66736   1.00
N1       0.23764    0.09477    0.64802   1.00
C6       0.21033    0.11922    0.62876   1.00
C6       0.23214    0.05715    0.63157   1.00
C6       0.18951    0.09723    0.60219   1.00
C6       0.20289    0.05909    0.60392   1.00
H3       0.20657    0.15008    0.63429   1.00
H3       0.24818    0.03124    0.63989   1.00
H3       0.16663    0.10795    0.58331   1.00
H3       0.19220    0.03495    0.58667   1.00
C4       0.24994    0.25038    0.52085   1.00
C4       0.25006    0.24962    0.47915   1.00
C3       0.21552    0.25769    0.54249   1.00
C3       0.21927    0.23271    0.45748   1.00
C3       0.28425    0.24297    0.54262   1.00
C3       0.28078    0.26665    0.45741   1.00
C2       0.24984    0.24997    0.60518   1.00
C2       0.24984    0.24997    0.39482   1.00
C3a      0.21532    0.25753    0.58401   1.00
C3       0.21924    0.23290    0.41618   1.00
C3       0.28414    0.24278    0.58389   1.00
C3a      0.28086    0.26691    0.41597   1.00
H1       0.18866    0.26386    0.52706   1.00
H1       0.19516    0.21888    0.47250   1.00
C5       0.17813    0.26563    0.60590   1.00
H1       0.19514    0.21961    0.40067   1.00
H1       0.31095    0.23669    0.59944   1.00
C5       0.31447    0.28548    0.39465   1.00
H1       0.30451    0.28097    0.47253   1.00
H1       0.31132    0.23647    0.52770   1.00
H2       0.34152    0.26900    0.40163   1.00
H2       0.31028    0.28380    0.36253   1.00
N1       0.31868    0.32640    0.40605   1.00
C6       0.32757    0.33977    0.44190   1.00
C6       0.31473    0.35755    0.38243   1.00
C6       0.32915    0.37998    0.44127   1.00
C6       0.32098    0.39129    0.40344   1.00
H3       0.33267    0.32152    0.46719   1.00
H3       0.30759    0.35595    0.35169   1.00
H3       0.33560    0.39896    0.46564   1.00
H3       0.31975    0.42081    0.39242   1.00
H2       0.18403    0.26357    0.63772   1.00
H2       0.16736    0.29562    0.59999   1.00
N1       0.14802    0.23764    0.59477   1.00
C6       0.12876    0.21033    0.61922   1.00
C6       0.13157    0.23214    0.55715   1.00
C6       0.10219    0.18951    0.59723   1.00
C6       0.10392    0.20289    0.55909   1.00
H3       0.13429    0.20657    0.65008   1.00
H3       0.13989    0.24818    0.53124   1.00
H3       0.08331    0.16663    0.60795   1.00
H3       0.08667    0.19220    0.53495   1.00
C4       0.24994    0.74962    0.47915   1.00
C4       0.25006    0.75038    0.52085   1.00
C3       0.21552    0.74231    0.45751   1.00
C3       0.21927    0.76729    0.54252   1.00
C3       0.28425    0.75703    0.45738   1.00
C3       0.28078    0.73335    0.54259   1.00
C2       0.24984    0.75003    0.39482   1.00
C2       0.24984    0.75003    0.60518   1.00
C3a      0.21532    0.74247    0.41599   1.00
C3       0.21924    0.76710    0.58382   1.00
C3       0.28414    0.75722    0.41611   1.00
C3a      0.28086    0.73309    0.58403   1.00
H1       0.18866    0.73614    0.47294   1.00
H1       0.19516    0.78112    0.52750   1.00
C5       0.17813    0.73437    0.39410   1.00
H1       0.19514    0.78039    0.59933   1.00
H1       0.31095    0.76331    0.40056   1.00
C5       0.31447    0.71452    0.60535   1.00
H1       0.30451    0.71903    0.52747   1.00
H1       0.31132    0.76353    0.47230   1.00
H2       0.34152    0.73100    0.59837   1.00
H2       0.31028    0.71620    0.63747   1.00
N1       0.31868    0.67360    0.59395   1.00
C6       0.32757    0.66023    0.55810   1.00
C6       0.31473    0.64245    0.61757   1.00
C6       0.32915    0.62002    0.55873   1.00
C6       0.32098    0.60871    0.59656   1.00
H3       0.33267    0.67848    0.53281   1.00
H3       0.30759    0.64405    0.64831   1.00
H3       0.33560    0.60104    0.53436   1.00
H3       0.31975    0.57919    0.60758   1.00
H2       0.18403    0.73643    0.36228   1.00
H2       0.16736    0.70438    0.40001   1.00
N1       0.14802    0.76236    0.40523   1.00
C6       0.12876    0.78967    0.38078   1.00
C6       0.13157    0.76786    0.44285   1.00
C6       0.10219    0.81049    0.40277   1.00
C6       0.10392    0.79711    0.44091   1.00
H3       0.13429    0.79343    0.34992   1.00
H3       0.13989    0.75182    0.46876   1.00
H3       0.08331    0.83337    0.39205   1.00
H3       0.08667    0.80780    0.46505   1.00
C4       0.24962    0.97915    0.24994   1.00
C4       0.25038    1.02085    0.25006   1.00
C3       0.24231    0.95751    0.21552   1.00
C3       0.26729    1.04252    0.21927   1.00
C3       0.25703    0.95738    0.28425   1.00
C3       0.23335    1.04259    0.28078   1.00
C2       0.25003    0.89482    0.24984   1.00
C2       0.25003    1.10518    0.24984   1.00
C3a      0.24247    0.91599    0.21532   1.00
C3       0.26710    1.08382    0.21924   1.00
C3       0.25722    0.91611    0.28414   1.00
C3a      0.23309    1.08403    0.28086   1.00
H1       0.23614    0.97294    0.18866   1.00
H1       0.28112    1.02750    0.19516   1.00
C5       0.23437    0.89410    0.17813   1.00
H1       0.28039    1.09933    0.19514   1.00
H1       0.26331    0.90056    0.31095   1.00
C5       0.21452    1.10535    0.31447   1.00
H1       0.21903    1.02747    0.30451   1.00
H1       0.26353    0.97230    0.31132   1.00
H2       0.23100    1.09837    0.34152   1.00
H2       0.21620    1.13747    0.31028   1.00
N1       0.17360    1.09395    0.31868   1.00
C6       0.16023    1.05810    0.32757   1.00
C6       0.14245    1.11757    0.31473   1.00
C6       0.12002    1.05873    0.32915   1.00
C6       0.10871    1.09656    0.32098   1.00
H3       0.17848    1.03281    0.33267   1.00
H3       0.14405    1.14831    0.30759   1.00
H3       0.10104    1.03436    0.33560   1.00
H3       0.07919    1.10758    0.31975   1.00
H2       0.23643    0.86228    0.18403   1.00
H2       0.20438    0.90001    0.16736   1.00
N1       0.26236    0.90523    0.14802   1.00
C6       0.28967    0.88078    0.12876   1.00
C6       0.26786    0.94285    0.13157   1.00
C6       0.31049    0.90277    0.10219   1.00
C6       0.29711    0.94091    0.10392   1.00
H3       0.29343    0.84992    0.13429   1.00
H3       0.25182    0.96876    0.13989   1.00
H3       0.33337    0.89205    0.08331   1.00
H3       0.30780    0.96505    0.08667   1.00
C4       0.02085    0.74994    0.25038   1.00
C4       -0.02085   0.75006    0.24962   1.00
C3       0.04249    0.71552    0.25769   1.00
C3       -0.04252   0.71927    0.23271   1.00
C3       0.04262    0.78425    0.24297   1.00
C3       -0.04259   0.78078    0.26665   1.00
C2       0.10518    0.74984    0.24997   1.00
C2       -0.10518   0.74984    0.24997   1.00
C3a      0.08401    0.71532    0.25753   1.00
C3       -0.08382   0.71924    0.23290   1.00
C3       0.08389    0.78414    0.24278   1.00
C3a      -0.08403   0.78086    0.26691   1.00
H1       0.02706    0.68866    0.26386   1.00
H1       -0.02750   0.69516    0.21888   1.00
C5       0.10590    0.67813    0.26563   1.00
H1       -0.09933   0.69514    0.21961   1.00
H1       0.09944    0.81095    0.23669   1.00
C5       -0.10535   0.81447    0.28548   1.00
H1       -0.02747   0.80451    0.28097   1.00
H1       0.02770    0.81132    0.23647   1.00
H2       -0.09837   0.84152    0.26900   1.00
H2       -0.13747   0.81028    0.28380   1.00
N1       -0.09395   0.81868    0.32640   1.00
C6       -0.05810   0.82757    0.33977   1.00
C6       -0.11757   0.81473    0.35755   1.00
C6       -0.05873   0.82915    0.37998   1.00
C6       -0.09656   0.82098    0.39129   1.00
H3       -0.03281   0.83267    0.32152   1.00
H3       -0.14831   0.80759    0.35595   1.00
H3       -0.03436   0.83560    0.39896   1.00
H3       -0.10758   0.81975    0.42081   1.00
H2       0.13772    0.68403    0.26357   1.00
H2       0.09999    0.66736    0.29562   1.00
N1       0.09477    0.64802    0.23764   1.00
C6       0.11922    0.62876    0.21033   1.00
C6       0.05715    0.63157    0.23214   1.00
C6       0.09723    0.60219    0.18951   1.00
C6       0.05909    0.60392    0.20289   1.00
H3       0.15008    0.63429    0.20657   1.00
H3       0.03124    0.63989    0.24818   1.00
H3       0.10795    0.58331    0.16663   1.00
H3       0.03495    0.58667    0.19220   1.00
C4       0.47915    0.74994    0.24962   1.00
C4       0.52085    0.75006    0.25038   1.00
C3       0.45751    0.71552    0.24231   1.00
C3       0.54252    0.71927    0.26729   1.00
C3       0.45738    0.78425    0.25703   1.00
C3       0.54259    0.78078    0.23335   1.00
C2       0.39482    0.74984    0.25003   1.00
C2       0.60518    0.74984    0.25003   1.00
C3a      0.41599    0.71532    0.24247   1.00
C3       0.58382    0.71924    0.26710   1.00
C3       0.41611    0.78414    0.25722   1.00
C3a      0.58403    0.78086    0.23309   1.00
H1       0.47294    0.68866    0.23614   1.00
H1       0.52750    0.69516    0.28112   1.00
C5       0.39410    0.67813    0.23437   1.00
H1       0.59933    0.69514    0.28039   1.00
H1       0.40056    0.81095    0.26331   1.00
C5       0.60535    0.81447    0.21452   1.00
H1       0.52747    0.80451    0.21903   1.00
H1       0.47230    0.81132    0.26353   1.00
H2       0.59837    0.84152    0.23100   1.00
H2       0.63747    0.81028    0.21620   1.00
N1       0.59395    0.81868    0.17360   1.00
C6       0.55810    0.82757    0.16023   1.00
C6       0.61757    0.81473    0.14245   1.00
C6       0.55873    0.82915    0.12002   1.00
C6       0.59656    0.82098    0.10871   1.00
H3       0.53281    0.83267    0.17848   1.00
H3       0.64831    0.80759    0.14405   1.00
H3       0.53436    0.83560    0.10104   1.00
H3       0.60758    0.81975    0.07919   1.00
H2       0.36228    0.68403    0.23643   1.00
H2       0.40001    0.66736    0.20438   1.00
N1       0.40523    0.64802    0.26236   1.00
C6       0.38078    0.62876    0.28967   1.00
C6       0.44285    0.63157    0.26786   1.00
C6       0.40277    0.60219    0.31049   1.00
C6       0.44091    0.60392    0.29711   1.00
H3       0.34992    0.63429    0.29343   1.00
H3       0.46876    0.63989    0.25182   1.00
H3       0.39205    0.58331    0.33337   1.00
H3       0.46505    0.58667    0.30780   1.00
C4       0.25038    0.52085    0.24994   1.00
C4       0.24962    0.47915    0.25006   1.00
C3       0.25769    0.54249    0.21552   1.00
C3       0.23271    0.45748    0.21927   1.00
C3       0.24297    0.54262    0.28425   1.00
C3       0.26665    0.45741    0.28078   1.00
C2       0.24997    0.60518    0.24984   1.00
C2       0.24997    0.39482    0.24984   1.00
C3a      0.25753    0.58401    0.21532   1.00
C3       0.23290    0.41618    0.21924   1.00
C3       0.24278    0.58389    0.28414   1.00
C3a      0.26691    0.41597    0.28086   1.00
H1       0.26386    0.52706    0.18866   1.00
H1       0.21888    0.47250    0.19516   1.00
C5       0.26563    0.60590    0.17813   1.00
H1       0.21961    0.40067    0.19514   1.00
H1       0.23669    0.59944    0.31095   1.00
C5       0.28548    0.39465    0.31447   1.00
H1       0.28097    0.47253    0.30451   1.00
H1       0.23647    0.52770    0.31132   1.00
H2       0.26900    0.40163    0.34152   1.00
H2       0.28380    0.36253    0.31028   1.00
N1       0.32640    0.40605    0.31868   1.00
C6       0.33977    0.44190    0.32757   1.00
C6       0.35755    0.38243    0.31473   1.00
C6       0.37998    0.44127    0.32915   1.00
C6       0.39129    0.40344    0.32098   1.00
H3       0.32152    0.46719    0.33267   1.00
H3       0.35595    0.35169    0.30759   1.00
H3       0.39896    0.46564    0.33560   1.00
H3       0.42081    0.39242    0.31975   1.00
H2       0.26357    0.63772    0.18403   1.00
H2       0.29562    0.59999    0.16736   1.00
N1       0.23764    0.59477    0.14802   1.00
C6       0.21033    0.61922    0.12876   1.00
C6       0.23214    0.55715    0.13157   1.00
C6       0.18951    0.59723    0.10219   1.00
C6       0.20289    0.55909    0.10392   1.00
H3       0.20657    0.65008    0.13429   1.00
H3       0.24818    0.53124    0.13989   1.00
H3       0.16663    0.60795    0.08331   1.00
H3       0.19220    0.53495    0.08667   1.00
C4       0.24994    0.75038    0.02085   1.00
C4       0.25006    0.74962    -0.02085   1.00
C3       0.21552    0.75769    0.04249   1.00
C3       0.21927    0.73271    -0.04252   1.00
C3       0.28425    0.74297    0.04262   1.00
C3       0.28078    0.76665    -0.04259   1.00
C2       0.24984    0.74997    0.10518   1.00
C2       0.24984    0.74997    -0.10518   1.00
C3a      0.21532    0.75753    0.08401   1.00
C3       0.21924    0.73290    -0.08382   1.00
C3       0.28414    0.74278    0.08389   1.00
C3a      0.28086    0.76691    -0.08403   1.00
H1       0.18866    0.76386    0.02706   1.00
H1       0.19516    0.71888    -0.02750   1.00
C5       0.17813    0.76563    0.10590   1.00
H1       0.19514    0.71961    -0.09933   1.00
H1       0.31095    0.73669    0.09944   1.00
C5       0.31447    0.78548    -0.10535   1.00
H1       0.30451    0.78097    -0.02747   1.00
H1       0.31132    0.73647    0.02770   1.00
H2       0.34152    0.76900    -0.09837   1.00
H2       0.31028    0.78380    -0.13747   1.00
N1       0.31868    0.82640    -0.09395   1.00
C6       0.32757    0.83977    -0.05810   1.00
C6       0.31473    0.85755    -0.11757   1.00
C6       0.32915    0.87998    -0.05873   1.00
C6       0.32098    0.89129    -0.09656   1.00
H3       0.33267    0.82152    -0.03281   1.00
H3       0.30759    0.85595    -0.14831   1.00
H3       0.33560    0.89896    -0.03436   1.00
H3       0.31975    0.92081    -0.10758   1.00
H2       0.18403    0.76357    0.13772   1.00
H2       0.16736    0.79562    0.09999   1.00
N1       0.14802    0.73764    0.09477   1.00
C6       0.12876    0.71033    0.11922   1.00
C6       0.13157    0.73214    0.05715   1.00
C6       0.10219    0.68951    0.09723   1.00
C6       0.10392    0.70289    0.05909   1.00
H3       0.13429    0.70657    0.15008   1.00
H3       0.13989    0.74818    0.03124   1.00
H3       0.08331    0.66663    0.10795   1.00
H3       0.08667    0.69220    0.03495   1.00
C4       0.74994    0.24962    0.47915   1.00
C4       0.75006    0.25038    0.52085   1.00
C3       0.71552    0.24231    0.45751   1.00
C3       0.71927    0.26729    0.54252   1.00
C3       0.78425    0.25703    0.45738   1.00
C3       0.78078    0.23335    0.54259   1.00
C2       0.74984    0.25003    0.39482   1.00
C2       0.74984    0.25003    0.60518   1.00
C3a      0.71532    0.24247    0.41599   1.00
C3       0.71924    0.26710    0.58382   1.00
C3       0.78414    0.25722    0.41611   1.00
C3a      0.78086    0.23309    0.58403   1.00
H1       0.68866    0.23614    0.47294   1.00
H1       0.69516    0.28112    0.52750   1.00
C5       0.67813    0.23437    0.39410   1.00
H1       0.69514    0.28039    0.59933   1.00
H1       0.81095    0.26331    0.40056   1.00
C5       0.81447    0.21452    0.60535   1.00
H1       0.80451    0.21903    0.52747   1.00
H1       0.81132    0.26353    0.47230   1.00
H2       0.84152    0.23100    0.59837   1.00
H2       0.81028    0.21620    0.63747   1.00
N1       0.81868    0.17360    0.59395   1.00
C6       0.82757    0.16023    0.55810   1.00
C6       0.81473    0.14245    0.61757   1.00
C6       0.82915    0.12002    0.55873   1.00
C6       0.82098    0.10871    0.59656   1.00
H3       0.83267    0.17848    0.53281   1.00
H3       0.80759    0.14405    0.64831   1.00
H3       0.83560    0.10104    0.53436   1.00
H3       0.81975    0.07919    0.60758   1.00
H2       0.68403    0.23643    0.36228   1.00
H2       0.66736    0.20438    0.40001   1.00
N1       0.64802    0.26236    0.40523   1.00
C6       0.62876    0.28967    0.38078   1.00
C6       0.63157    0.26786    0.44285   1.00
C6       0.60219    0.31049    0.40277   1.00
C6       0.60392    0.29711    0.44091   1.00
H3       0.63429    0.29343    0.34992   1.00
H3       0.63989    0.25182    0.46876   1.00
H3       0.58331    0.33337    0.39205   1.00
H3       0.58667    0.30780    0.46505   1.00
C4       0.74962    0.47915    0.24994   1.00
C4       0.75038    0.52085    0.25006   1.00
C3       0.74231    0.45751    0.21552   1.00
C3       0.76729    0.54252    0.21927   1.00
C3       0.75703    0.45738    0.28425   1.00
C3       0.73335    0.54259    0.28078   1.00
C2       0.75003    0.39482    0.24984   1.00
C2       0.75003    0.60518    0.24984   1.00
C3a      0.74247    0.41599    0.21532   1.00
C3       0.76710    0.58382    0.21924   1.00
C3       0.75722    0.41611    0.28414   1.00
C3a      0.73309    0.58403    0.28086   1.00
H1       0.73614    0.47294    0.18866   1.00
H1       0.78112    0.52750    0.19516   1.00
C5       0.73437    0.39410    0.17813   1.00
H1       0.78039    0.59933    0.19514   1.00
H1       0.76331    0.40056    0.31095   1.00
C5       0.71452    0.60535    0.31447   1.00
H1       0.71903    0.52747    0.30451   1.00
H1       0.76353    0.47230    0.31132   1.00
H2       0.73100    0.59837    0.34152   1.00
H2       0.71620    0.63747    0.31028   1.00
N1       0.67360    0.59395    0.31868   1.00
C6       0.66023    0.55810    0.32757   1.00
C6       0.64245    0.61757    0.31473   1.00
C6       0.62002    0.55873    0.32915   1.00
C6       0.60871    0.59656    0.32098   1.00
H3       0.67848    0.53281    0.33267   1.00
H3       0.64405    0.64831    0.30759   1.00
H3       0.60104    0.53436    0.33560   1.00
H3       0.57919    0.60758    0.31975   1.00
H2       0.73643    0.36228    0.18403   1.00
H2       0.70438    0.40001    0.16736   1.00
N1       0.76236    0.40523    0.14802   1.00
C6       0.78967    0.38078    0.12876   1.00
C6       0.76786    0.44285    0.13157   1.00
C6       0.81049    0.40277    0.10219   1.00
C6       0.79711    0.44091    0.10392   1.00
H3       0.79343    0.34992    0.13429   1.00
H3       0.75182    0.46876    0.13989   1.00
H3       0.83337    0.39205    0.08331   1.00
H3       0.80780    0.46505    0.08667   1.00
C4       0.52085    0.24994    0.25038   1.00
C4       0.47915    0.25006    0.24962   1.00
C3       0.54249    0.21552    0.25769   1.00
C3       0.45748    0.21927    0.23271   1.00
C3       0.54262    0.28425    0.24297   1.00
C3       0.45741    0.28078    0.26665   1.00
C2       0.60518    0.24984    0.24997   1.00
C2       0.39482    0.24984    0.24997   1.00
C3a      0.58401    0.21532    0.25753   1.00
C3       0.41618    0.21924    0.23290   1.00
C3       0.58389    0.28414    0.24278   1.00
C3a      0.41597    0.28086    0.26691   1.00
H1       0.52706    0.18866    0.26386   1.00
H1       0.47250    0.19516    0.21888   1.00
C5       0.60590    0.17813    0.26563   1.00
H1       0.40067    0.19514    0.21961   1.00
H1       0.59944    0.31095    0.23669   1.00
C5       0.39465    0.31447    0.28548   1.00
H1       0.47253    0.30451    0.28097   1.00
H1       0.52770    0.31132    0.23647   1.00
H2       0.40163    0.34152    0.26900   1.00
H2       0.36253    0.31028    0.28380   1.00
N1       0.40605    0.31868    0.32640   1.00
C6       0.44190    0.32757    0.33977   1.00
C6       0.38243    0.31473    0.35755   1.00
C6       0.44127    0.32915    0.37998   1.00
C6       0.40344    0.32098    0.39129   1.00
H3       0.46719    0.33267    0.32152   1.00
H3       0.35169    0.30759    0.35595   1.00
H3       0.46564    0.33560    0.39896   1.00
H3       0.39242    0.31975    0.42081   1.00
H2       0.63772    0.18403    0.26357   1.00
H2       0.59999    0.16736    0.29562   1.00
N1       0.59477    0.14802    0.23764   1.00
C6       0.61922    0.12876    0.21033   1.00
C6       0.55715    0.13157    0.23214   1.00
C6       0.59723    0.10219    0.18951   1.00
C6       0.55909    0.10392    0.20289   1.00
H3       0.65008    0.13429    0.20657   1.00
H3       0.53124    0.13989    0.24818   1.00
H3       0.60795    0.08331    0.16663   1.00
H3       0.53495    0.08667    0.19220   1.00
C4       0.97915    0.24994    0.24962   1.00
C4       1.02085    0.25006    0.25038   1.00
C3       0.95751    0.21552    0.24231   1.00
C3       1.04252    0.21927    0.26729   1.00
C3       0.95738    0.28425    0.25703   1.00
C3       1.04259    0.28078    0.23335   1.00
C2       0.89482    0.24984    0.25003   1.00
C2       1.10518    0.24984    0.25003   1.00
C3a      0.91599    0.21532    0.24247   1.00
C3       1.08382    0.21924    0.26710   1.00
C3       0.91611    0.28414    0.25722   1.00
C3a      1.08403    0.28086    0.23309   1.00
H1       0.97294    0.18866    0.23614   1.00
H1       1.02750    0.19516    0.28112   1.00
C5       0.89410    0.17813    0.23437   1.00
H1       1.09933    0.19514    0.28039   1.00
H1       0.90056    0.31095    0.26331   1.00
C5       1.10535    0.31447    0.21452   1.00
H1       1.02747    0.30451    0.21903   1.00
H1       0.97230    0.31132    0.26353   1.00
H2       1.09837    0.34152    0.23100   1.00
H2       1.13747    0.31028    0.21620   1.00
N1       1.09395    0.31868    0.17360   1.00
C6       1.05810    0.32757    0.16023   1.00
C6       1.11757    0.31473    0.14245   1.00
C6       1.05873    0.32915    0.12002   1.00
C6       1.09656    0.32098    0.10871   1.00
H3       1.03281    0.33267    0.17848   1.00
H3       1.14831    0.30759    0.14405   1.00
H3       1.03436    0.33560    0.10104   1.00
H3       1.10758    0.31975    0.07919   1.00
H2       0.86228    0.18403    0.23643   1.00
H2       0.90001    0.16736    0.20438   1.00
N1       0.90523    0.14802    0.26236   1.00
C6       0.88078    0.12876    0.28967   1.00
C6       0.94285    0.13157    0.26786   1.00
C6       0.90277    0.10219    0.31049   1.00
C6       0.94091    0.10392    0.29711   1.00
H3       0.84992    0.13429    0.29343   1.00
H3       0.96876    0.13989    0.25182   1.00
H3       0.89205    0.08331    0.33337   1.00
H3       0.96505    0.08667    0.30780   1.00
C4       0.75038    0.02085    0.24994   1.00
C4       0.74962    -0.02085   0.25006   1.00
C3       0.75769    0.04249    0.21552   1.00
C3       0.73271    -0.04252   0.21927   1.00
C3       0.74297    0.04262    0.28425   1.00
C3       0.76665    -0.04259   0.28078   1.00
C2       0.74997    0.10518    0.24984   1.00
C2       0.74997    -0.10518   0.24984   1.00
C3a      0.75753    0.08401    0.21532   1.00
C3       0.73290    -0.08382   0.21924   1.00
C3       0.74278    0.08389    0.28414   1.00
C3a      0.76691    -0.08403   0.28086   1.00
H1       0.76386    0.02706    0.18866   1.00
H1       0.71888    -0.02750   0.19516   1.00
C5       0.76563    0.10590    0.17813   1.00
H1       0.71961    -0.09933   0.19514   1.00
H1       0.73669    0.09944    0.31095   1.00
C5       0.78548    -0.10535   0.31447   1.00
H1       0.78097    -0.02747   0.30451   1.00
H1       0.73647    0.02770    0.31132   1.00
H2       0.76900    -0.09837   0.34152   1.00
H2       0.78380    -0.13747   0.31028   1.00
N1       0.82640    -0.09395   0.31868   1.00
C6       0.83977    -0.05810   0.32757   1.00
C6       0.85755    -0.11757   0.31473   1.00
C6       0.87998    -0.05873   0.32915   1.00
C6       0.89129    -0.09656   0.32098   1.00
H3       0.82152    -0.03281   0.33267   1.00
H3       0.85595    -0.14831   0.30759   1.00
H3       0.89896    -0.03436   0.33560   1.00
H3       0.92081    -0.10758   0.31975   1.00
H2       0.76357    0.13772    0.18403   1.00
H2       0.79562    0.09999    0.16736   1.00
N1       0.73764    0.09477    0.14802   1.00
C6       0.71033    0.11922    0.12876   1.00
C6       0.73214    0.05715    0.13157   1.00
C6       0.68951    0.09723    0.10219   1.00
C6       0.70289    0.05909    0.10392   1.00
H3       0.70657    0.15008    0.13429   1.00
H3       0.74818    0.03124    0.13989   1.00
H3       0.66663    0.10795    0.08331   1.00
H3       0.69220    0.03495    0.08667   1.00
C4       0.74994    0.25038    0.02085   1.00
C4       0.75006    0.24962    -0.02085   1.00
C3       0.71552    0.25769    0.04249   1.00
C3       0.71927    0.23271    -0.04252   1.00
C3       0.78425    0.24297    0.04262   1.00
C3       0.78078    0.26665    -0.04259   1.00
C2       0.74984    0.24997    0.10518   1.00
C2       0.74984    0.24997    -0.10518   1.00
C3a      0.71532    0.25753    0.08401   1.00
C3       0.71924    0.23290    -0.08382   1.00
C3       0.78414    0.24278    0.08389   1.00
C3a      0.78086    0.26691    -0.08403   1.00
H1       0.68866    0.26386    0.02706   1.00
H1       0.69516    0.21888    -0.02750   1.00
C5       0.67813    0.26563    0.10590   1.00
H1       0.69514    0.21961    -0.09933   1.00
H1       0.81095    0.23669    0.09944   1.00
C5       0.81447    0.28548    -0.10535   1.00
H1       0.80451    0.28097    -0.02747   1.00
H1       0.81132    0.23647    0.02770   1.00
H2       0.84152    0.26900    -0.09837   1.00
H2       0.81028    0.28380    -0.13747   1.00
N1       0.81868    0.32640    -0.09395   1.00
C6       0.82757    0.33977    -0.05810   1.00
C6       0.81473    0.35755    -0.11757   1.00
C6       0.82915    0.37998    -0.05873   1.00
C6       0.82098    0.39129    -0.09656   1.00
H3       0.83267    0.32152    -0.03281   1.00
H3       0.80759    0.35595    -0.14831   1.00
H3       0.83560    0.39896    -0.03436   1.00
H3       0.81975    0.42081    -0.10758   1.00
H2       0.68403    0.26357    0.13772   1.00
H2       0.66736    0.29562    0.09999   1.00
N1       0.64802    0.23764    0.09477   1.00
C6       0.62876    0.21033    0.11922   1.00
C6       0.63157    0.23214    0.05715   1.00
C6       0.60219    0.18951    0.09723   1.00
C6       0.60392    0.20289    0.05909   1.00
H3       0.63429    0.20657    0.15008   1.00
H3       0.63989    0.24818    0.03124   1.00
H3       0.58331    0.16663    0.10795   1.00
H3       0.58667    0.19220    0.03495   1.00
C4       0.91494    0.91462    1.14415   1.00
C4       0.91506    0.91538    1.18585   1.00
C3       0.88052    0.90731    1.12251   1.00
C3       0.88427    0.93229    1.20752   1.00
C3       0.94925    0.92203    1.12238   1.00
C3       0.94578    0.89835    1.20759   1.00
C2       0.91484    0.91503    1.05982   1.00
C2       0.91484    0.91503    1.27018   1.00
C3a      0.88032    0.90747    1.08099   1.00
C3       0.88424    0.93210    1.24882   1.00
C3       0.94914    0.92222    1.08111   1.00
C3a      0.94586    0.89809    1.24903   1.00
H1       0.85366    0.90114    1.13794   1.00
H1       0.86016    0.94612    1.19250   1.00
C5       0.84313    0.89937    1.05910   1.00
H1       0.86014    0.94539    1.26433   1.00
H1       0.97595    0.92831    1.06556   1.00
C5       0.97947    0.87952    1.27035   1.00
H1       0.96951    0.88403    1.19247   1.00
H1       0.97632    0.92853    1.13730   1.00
H2       1.00652    0.89600    1.26337   1.00
H2       0.97528    0.88120    1.30247   1.00
N1       0.98368    0.83860    1.25895   1.00
C6       0.99257    0.82523    1.22310   1.00
C6       0.97973    0.80745    1.28257   1.00
C6       0.99415    0.78502    1.22373   1.00
C6       0.98598    0.77371    1.26156   1.00
H3       0.99767    0.84348    1.19781   1.00
H3       0.97259    0.80905    1.31331   1.00
H3       1.00060    0.76604    1.19936   1.00
H3       0.98475    0.74419    1.27258   1.00
H2       0.84903    0.90143    1.02728   1.00
H2       0.83236    0.86938    1.06501   1.00
N1       0.81302    0.92736    1.07023   1.00
C6       0.79376    0.95467    1.04578   1.00
C6       0.79657    0.93286    1.10785   1.00
C6       0.76719    0.97549    1.06777   1.00
C6       0.76892    0.96211    1.10591   1.00
H3       0.79929    0.95843    1.01492   1.00
H3       0.80489    0.91682    1.13376   1.00
H3       0.74831    0.99837    1.05705   1.00
H3       0.75167    0.97280    1.13005   1.00
C4       0.91462    1.14415    0.91494   1.00
C4       0.91538    1.18585    0.91506   1.00
C3       0.90731    1.12251    0.88052   1.00
C3       0.93229    1.20752    0.88427   1.00
C3       0.92203    1.12238    0.94925   1.00
C3       0.89835    1.20759    0.94578   1.00
C2       0.91503    1.05982    0.91484   1.00
C2       0.91503    1.27018    0.91484   1.00
C3a      0.90747    1.08099    0.88032   1.00
C3       0.93210    1.24882    0.88424   1.00
C3       0.92222    1.08111    0.94914   1.00
C3a      0.89809    1.24903    0.94586   1.00
H1       0.90114    1.13794    0.85366   1.00
H1       0.94612    1.19250    0.86016   1.00
C5       0.89937    1.05910    0.84313   1.00
H1       0.94539    1.26433    0.86014   1.00
H1       0.92831    1.06556    0.97595   1.00
C5       0.87952    1.27035    0.97947   1.00
H1       0.88403    1.19247    0.96951   1.00
H1       0.92853    1.13730    0.97632   1.00
H2       0.89600    1.26337    1.00652   1.00
H2       0.88120    1.30247    0.97528   1.00
N1       0.83860    1.25895    0.98368   1.00
C6       0.82523    1.22310    0.99257   1.00
C6       0.80745    1.28257    0.97973   1.00
C6       0.78502    1.22373    0.99415   1.00
C6       0.77371    1.26156    0.98598   1.00
H3       0.84348    1.19781    0.99767   1.00
H3       0.80905    1.31331    0.97259   1.00
H3       0.76604    1.19936    1.00060   1.00
H3       0.74419    1.27258    0.98475   1.00
H2       0.90143    1.02728    0.84903   1.00
H2       0.86938    1.06501    0.83236   1.00
N1       0.92736    1.07023    0.81302   1.00
C6       0.95467    1.04578    0.79376   1.00
C6       0.93286    1.10785    0.79657   1.00
C6       0.97549    1.06777    0.76719   1.00
C6       0.96211    1.10591    0.76892   1.00
H3       0.95843    1.01492    0.79929   1.00
H3       0.91682    1.13376    0.80489   1.00
H3       0.99837    1.05705    0.74831   1.00
H3       0.97280    1.13005    0.75167   1.00
C4       0.68585    0.91494    0.91538   1.00
C4       0.64415    0.91506    0.91462   1.00
C3       0.70749    0.88052    0.92269   1.00
C3       0.62248    0.88427    0.89771   1.00
C3       0.70762    0.94925    0.90797   1.00
C3       0.62241    0.94578    0.93165   1.00
C2       0.77018    0.91484    0.91497   1.00
C2       0.55982    0.91484    0.91497   1.00
C3a      0.74901    0.88032    0.92253   1.00
C3       0.58118    0.88424    0.89790   1.00
C3       0.74889    0.94914    0.90778   1.00
C3a      0.58097    0.94586    0.93191   1.00
H1       0.69206    0.85366    0.92886   1.00
H1       0.63750    0.86016    0.88388   1.00
C5       0.77090    0.84313    0.93063   1.00
H1       0.56567    0.86014    0.88461   1.00
H1       0.76444    0.97595    0.90169   1.00
C5       0.55965    0.97947    0.95048   1.00
H1       0.63753    0.96951    0.94597   1.00
H1       0.69270    0.97632    0.90147   1.00
H2       0.56663    1.00652    0.93400   1.00
H2       0.52753    0.97528    0.94880   1.00
N1       0.57105    0.98368    0.99140   1.00
C6       0.60690    0.99257    1.00477   1.00
C6       0.54743    0.97973    1.02255   1.00
C6       0.60627    0.99415    1.04498   1.00
C6       0.56844    0.98598    1.05629   1.00
H3       0.63219    0.99767    0.98652   1.00
H3       0.51669    0.97259    1.02095   1.00
H3       0.63064    1.00060    1.06396   1.00
H3       0.55742    0.98475    1.08581   1.00
H2       0.80272    0.84903    0.92857   1.00
H2       0.76499    0.83236    0.96062   1.00
N1       0.75977    0.81302    0.90264   1.00
C6       0.78422    0.79376    0.87533   1.00
C6       0.72215    0.79657    0.89714   1.00
C6       0.76223    0.76719    0.85451   1.00
C6       0.72409    0.76892    0.86789   1.00
H3       0.81508    0.79929    0.87157   1.00
H3       0.69624    0.80489    0.91318   1.00
H3       0.77295    0.74831    0.83163   1.00
H3       0.69995    0.75167    0.85720   1.00
C4       1.14415    0.91494    0.91462   1.00
C4       1.18585    0.91506    0.91538   1.00
C3       1.12251    0.88052    0.90731   1.00
C3       1.20752    0.88427    0.93229   1.00
C3       1.12238    0.94925    0.92203   1.00
C3       1.20759    0.94578    0.89835   1.00
C2       1.05982    0.91484    0.91503   1.00
C2       1.27018    0.91484    0.91503   1.00
C3a      1.08099    0.88032    0.90747   1.00
C3       1.24882    0.88424    0.93210   1.00
C3       1.08111    0.94914    0.92222   1.00
C3a      1.24903    0.94586    0.89809   1.00
H1       1.13794    0.85366    0.90114   1.00
H1       1.19250    0.86016    0.94612   1.00
C5       1.05910    0.84313    0.89937   1.00
H1       1.26433    0.86014    0.94539   1.00
H1       1.06556    0.97595    0.92831   1.00
C5       1.27035    0.97947    0.87952   1.00
H1       1.19247    0.96951    0.88403   1.00
H1       1.13730    0.97632    0.92853   1.00
H2       1.26337    1.00652    0.89600   1.00
H2       1.30247    0.97528    0.88120   1.00
N1       1.25895    0.98368    0.83860   1.00
C6       1.22310    0.99257    0.82523   1.00
C6       1.28257    0.97973    0.80745   1.00
C6       1.22373    0.99415    0.78502   1.00
C6       1.26156    0.98598    0.77371   1.00
H3       1.19781    0.99767    0.84348   1.00
H3       1.31331    0.97259    0.80905   1.00
H3       1.19936    1.00060    0.76604   1.00
H3       1.27258    0.98475    0.74419   1.00
H2       1.02728    0.84903    0.90143   1.00
H2       1.06501    0.83236    0.86938   1.00
N1       1.07023    0.81302    0.92736   1.00
C6       1.04578    0.79376    0.95467   1.00
C6       1.10785    0.79657    0.93286   1.00
C6       1.06777    0.76719    0.97549   1.00
C6       1.10591    0.76892    0.96211   1.00
H3       1.01492    0.79929    0.95843   1.00
H3       1.13376    0.80489    0.91682   1.00
H3       1.05705    0.74831    0.99837   1.00
H3       1.13005    0.75167    0.97280   1.00
C4       0.91538    0.68585    0.91494   1.00
C4       0.91462    0.64415    0.91506   1.00
C3       0.92269    0.70749    0.88052   1.00
C3       0.89771    0.62248    0.88427   1.00
C3       0.90797    0.70762    0.94925   1.00
C3       0.93165    0.62241    0.94578   1.00
C2       0.91497    0.77018    0.91484   1.00
C2       0.91497    0.55982    0.91484   1.00
C3a      0.92253    0.74901    0.88032   1.00
C3       0.89790    0.58118    0.88424   1.00
C3       0.90778    0.74889    0.94914   1.00
C3a      0.93191    0.58097    0.94586   1.00
H1       0.92886    0.69206    0.85366   1.00
H1       0.88388    0.63750    0.86016   1.00
C5       0.93063    0.77090    0.84313   1.00
H1       0.88461    0.56567    0.86014   1.00
H1       0.90169    0.76444    0.97595   1.00
C5       0.95048    0.55965    0.97947   1.00
H1       0.94597    0.63753    0.96951   1.00
H1       0.90147    0.69270    0.97632   1.00
H2       0.93400    0.56663    1.00652   1.00
H2       0.94880    0.52753    0.97528   1.00
N1       0.99140    0.57105    0.98368   1.00
C6       1.00477    0.60690    0.99257   1.00
C6       1.02255    0.54743    0.97973   1.00
C6       1.04498    0.60627    0.99415   1.00
C6       1.05629    0.56844    0.98598   1.00
H3       0.98652    0.63219    0.99767   1.00
H3       1.02095    0.51669    0.97259   1.00
H3       1.06396    0.63064    1.00060   1.00
H3       1.08581    0.55742    0.98475   1.00
H2       0.92857    0.80272    0.84903   1.00
H2       0.96062    0.76499    0.83236   1.00
N1       0.90264    0.75977    0.81302   1.00
C6       0.87533    0.78422    0.79376   1.00
C6       0.89714    0.72215    0.79657   1.00
C6       0.85451    0.76223    0.76719   1.00
C6       0.86789    0.72409    0.76892   1.00
H3       0.87157    0.81508    0.79929   1.00
H3       0.91318    0.69624    0.80489   1.00
H3       0.83163    0.77295    0.74831   1.00
H3       0.85720    0.69995    0.75167   1.00
C4       0.91494    0.91538    0.68585   1.00
C4       0.91506    0.91462    0.64415   1.00
C3       0.88052    0.92269    0.70749   1.00
C3       0.88427    0.89771    0.62248   1.00
C3       0.94925    0.90797    0.70762   1.00
C3       0.94578    0.93165    0.62241   1.00
C2       0.91484    0.91497    0.77018   1.00
C2       0.91484    0.91497    0.55982   1.00
C3a      0.88032    0.92253    0.74901   1.00
C3       0.88424    0.89790    0.58118   1.00
C3       0.94914    0.90778    0.74889   1.00
C3a      0.94586    0.93191    0.58097   1.00
H1       0.85366    0.92886    0.69206   1.00
H1       0.86016    0.88388    0.63750   1.00
C5       0.84313    0.93063    0.77090   1.00
H1       0.86014    0.88461    0.56567   1.00
H1       0.97595    0.90169    0.76444   1.00
C5       0.97947    0.95048    0.55965   1.00
H1       0.96951    0.94597    0.63753   1.00
H1       0.97632    0.90147    0.69270   1.00
H2       1.00652    0.93400    0.56663   1.00
H2       0.97528    0.94880    0.52753   1.00
N1       0.98368    0.99140    0.57105   1.00
C6       0.99257    1.00477    0.60690   1.00
C6       0.97973    1.02255    0.54743   1.00
C6       0.99415    1.04498    0.60627   1.00
C6       0.98598    1.05629    0.56844   1.00
H3       0.99767    0.98652    0.63219   1.00
H3       0.97259    1.02095    0.51669   1.00
H3       1.00060    1.06396    0.63064   1.00
H3       0.98475    1.08581    0.55742   1.00
H2       0.84903    0.92857    0.80272   1.00
H2       0.83236    0.96062    0.76499   1.00
N1       0.81302    0.90264    0.75977   1.00
C6       0.79376    0.87533    0.78422   1.00
C6       0.79657    0.89714    0.72215   1.00
C6       0.76719    0.85451    0.76223   1.00
C6       0.76892    0.86789    0.72409   1.00
H3       0.79929    0.87157    0.81508   1.00
H3       0.80489    0.91318    0.69624   1.00
H3       0.74831    0.83163    0.77295   1.00
H3       0.75167    0.85720    0.69995   1.00
C4       0.41494    0.41462    1.14415   1.00
C4       0.41506    0.41538    1.18585   1.00
C3       0.38052    0.40731    1.12251   1.00
C3       0.38427    0.43229    1.20752   1.00
C3       0.44925    0.42203    1.12238   1.00
C3       0.44578    0.39835    1.20759   1.00
C2       0.41484    0.41503    1.05982   1.00
C2       0.41484    0.41503    1.27018   1.00
C3a      0.38032    0.40747    1.08099   1.00
C3       0.38424    0.43210    1.24882   1.00
C3       0.44914    0.42222    1.08111   1.00
C3a      0.44586    0.39809    1.24903   1.00
H1       0.35366    0.40114    1.13794   1.00
H1       0.36016    0.44612    1.19250   1.00
C5       0.34313    0.39937    1.05910   1.00
H1       0.36014    0.44539    1.26433   1.00
H1       0.47595    0.42831    1.06556   1.00
C5       0.47947    0.37952    1.27035   1.00
H1       0.46951    0.38403    1.19247   1.00
H1       0.47632    0.42853    1.13730   1.00
H2       0.50652    0.39600    1.26337   1.00
H2       0.47528    0.38120    1.30247   1.00
N1       0.48368    0.33860    1.25895   1.00
C6       0.49257    0.32523    1.22310   1.00
C6       0.47973    0.30745    1.28257   1.00
C6       0.49415    0.28502    1.22373   1.00
C6       0.48598    0.27371    1.26156   1.00
H3       0.49767    0.34348    1.19781   1.00
H3       0.47259    0.30905    1.31331   1.00
H3       0.50060    0.26604    1.19936   1.00
H3       0.48475    0.24419    1.27258   1.00
H2       0.34903    0.40143    1.02728   1.00
H2       0.33236    0.36938    1.06501   1.00
N1       0.31302    0.42736    1.07023   1.00
C6       0.29376    0.45467    1.04578   1.00
C6       0.29657    0.43286    1.10785   1.00
C6       0.26719    0.47549    1.06777   1.00
C6       0.26892    0.46211    1.10591   1.00
H3       0.29929    0.45843    1.01492   1.00
H3       0.30489    0.41682    1.13376   1.00
H3       0.24831    0.49837    1.05705   1.00
H3       0.25167    0.47280    1.13005   1.00
C4       0.41462    0.64415    0.91494   1.00
C4       0.41538    0.68585    0.91506   1.00
C3       0.40731    0.62251    0.88052   1.00
C3       0.43229    0.70752    0.88427   1.00
C3       0.42203    0.62238    0.94925   1.00
C3       0.39835    0.70759    0.94578   1.00
C2       0.41503    0.55982    0.91484   1.00
C2       0.41503    0.77018    0.91484   1.00
C3a      0.40747    0.58099    0.88032   1.00
C3       0.43210    0.74882    0.88424   1.00
C3       0.42222    0.58111    0.94914   1.00
C3a      0.39809    0.74903    0.94586   1.00
H1       0.40114    0.63794    0.85366   1.00
H1       0.44612    0.69250    0.86016   1.00
C5       0.39937    0.55910    0.84313   1.00
H1       0.44539    0.76433    0.86014   1.00
H1       0.42831    0.56556    0.97595   1.00
C5       0.37952    0.77035    0.97947   1.00
H1       0.38403    0.69247    0.96951   1.00
H1       0.42853    0.63730    0.97632   1.00
H2       0.39600    0.76337    1.00652   1.00
H2       0.38120    0.80247    0.97528   1.00
N1       0.33860    0.75895    0.98368   1.00
C6       0.32523    0.72310    0.99257   1.00
C6       0.30745    0.78257    0.97973   1.00
C6       0.28502    0.72373    0.99415   1.00
C6       0.27371    0.76156    0.98598   1.00
H3       0.34348    0.69781    0.99767   1.00
H3       0.30905    0.81331    0.97259   1.00
H3       0.26604    0.69936    1.00060   1.00
H3       0.24419    0.77258    0.98475   1.00
H2       0.40143    0.52728    0.84903   1.00
H2       0.36938    0.56501    0.83236   1.00
N1       0.42736    0.57023    0.81302   1.00
C6       0.45467    0.54578    0.79376   1.00
C6       0.43286    0.60785    0.79657   1.00
C6       0.47549    0.56777    0.76719   1.00
C6       0.46211    0.60591    0.76892   1.00
H3       0.45843    0.51492    0.79929   1.00
H3       0.41682    0.63376    0.80489   1.00
H3       0.49837    0.55705    0.74831   1.00
H3       0.47280    0.63005    0.75167   1.00
C4       0.18585    0.41494    0.91538   1.00
C4       0.14415    0.41506    0.91462   1.00
C3       0.20749    0.38052    0.92269   1.00
C3       0.12248    0.38427    0.89771   1.00
C3       0.20762    0.44925    0.90797   1.00
C3       0.12241    0.44578    0.93165   1.00
C2       0.27018    0.41484    0.91497   1.00
C2       0.05982    0.41484    0.91497   1.00
C3a      0.24901    0.38032    0.92253   1.00
C3       0.08118    0.38424    0.89790   1.00
C3       0.24889    0.44914    0.90778   1.00
C3a      0.08097    0.44586    0.93191   1.00
H1       0.19206    0.35366    0.92886   1.00
H1       0.13750    0.36016    0.88388   1.00
C5       0.27090    0.34313    0.93063   1.00
H1       0.06567    0.36014    0.88461   1.00
H1       0.26444    0.47595    0.90169   1.00
C5       0.05965    0.47947    0.95048   1.00
H1       0.13753    0.46951    0.94597   1.00
H1       0.19270    0.47632    0.90147   1.00
H2       0.06663    0.50652    0.93400   1.00
H2       0.02753    0.47528    0.94880   1.00
N1       0.07105    0.48368    0.99140   1.00
C6       0.10690    0.49257    1.00477   1.00
C6       0.04743    0.47973    1.02255   1.00
C6       0.10627    0.49415    1.04498   1.00
C6       0.06844    0.48598    1.05629   1.00
H3       0.13219    0.49767    0.98652   1.00
H3       0.01669    0.47259    1.02095   1.00
H3       0.13064    0.50060    1.06396   1.00
H3       0.05742    0.48475    1.08581   1.00
H2       0.30272    0.34903    0.92857   1.00
H2       0.26499    0.33236    0.96062   1.00
N1       0.25977    0.31302    0.90264   1.00
C6       0.28422    0.29376    0.87533   1.00
C6       0.22215    0.29657    0.89714   1.00
C6       0.26223    0.26719    0.85451   1.00
C6       0.22409    0.26892    0.86789   1.00
H3       0.31508    0.29929    0.87157   1.00
H3       0.19624    0.30489    0.91318   1.00
H3       0.27295    0.24831    0.83163   1.00
H3       0.19995    0.25167    0.85720   1.00
C4       0.64415    0.41494    0.91462   1.00
C4       0.68585    0.41506    0.91538   1.00
C3       0.62251    0.38052    0.90731   1.00
C3       0.70752    0.38427    0.93229   1.00
C3       0.62238    0.44925    0.92203   1.00
C3       0.70759    0.44578    0.89835   1.00
C2       0.55982    0.41484    0.91503   1.00
C2       0.77018    0.41484    0.91503   1.00
C3a      0.58099    0.38032    0.90747   1.00
C3       0.74882    0.38424    0.93210   1.00
C3       0.58111    0.44914    0.92222   1.00
C3a      0.74903    0.44586    0.89809   1.00
H1       0.63794    0.35366    0.90114   1.00
H1       0.69250    0.36016    0.94612   1.00
C5       0.55910    0.34313    0.89937   1.00
H1       0.76433    0.36014    0.94539   1.00
H1       0.56556    0.47595    0.92831   1.00
C5       0.77035    0.47947    0.87952   1.00
H1       0.69247    0.46951    0.88403   1.00
H1       0.63730    0.47632    0.92853   1.00
H2       0.76337    0.50652    0.89600   1.00
H2       0.80247    0.47528    0.88120   1.00
N1       0.75895    0.48368    0.83860   1.00
C6       0.72310    0.49257    0.82523   1.00
C6       0.78257    0.47973    0.80745   1.00
C6       0.72373    0.49415    0.78502   1.00
C6       0.76156    0.48598    0.77371   1.00
H3       0.69781    0.49767    0.84348   1.00
H3       0.81331    0.47259    0.80905   1.00
H3       0.69936    0.50060    0.76604   1.00
H3       0.77258    0.48475    0.74419   1.00
H2       0.52728    0.34903    0.90143   1.00
H2       0.56501    0.33236    0.86938   1.00
N1       0.57023    0.31302    0.92736   1.00
C6       0.54578    0.29376    0.95467   1.00
C6       0.60785    0.29657    0.93286   1.00
C6       0.56777    0.26719    0.97549   1.00
C6       0.60591    0.26892    0.96211   1.00
H3       0.51492    0.29929    0.95843   1.00
H3       0.63376    0.30489    0.91682   1.00
H3       0.55705    0.24831    0.99837   1.00
H3       0.63005    0.25167    0.97280   1.00
C4       0.41538    0.18585    0.91494   1.00
C4       0.41462    0.14415    0.91506   1.00
C3       0.42269    0.20749    0.88052   1.00
C3       0.39771    0.12248    0.88427   1.00
C3       0.40797    0.20762    0.94925   1.00
C3       0.43165    0.12241    0.94578   1.00
C2       0.41497    0.27018    0.91484   1.00
C2       0.41497    0.05982    0.91484   1.00
C3a      0.42253    0.24901    0.88032   1.00
C3       0.39790    0.08118    0.88424   1.00
C3       0.40778    0.24889    0.94914   1.00
C3a      0.43191    0.08097    0.94586   1.00
H1       0.42886    0.19206    0.85366   1.00
H1       0.38388    0.13750    0.86016   1.00
C5       0.43063    0.27090    0.84313   1.00
H1       0.38461    0.06567    0.86014   1.00
H1       0.40169    0.26444    0.97595   1.00
C5       0.45048    0.05965    0.97947   1.00
H1       0.44597    0.13753    0.96951   1.00
H1       0.40147    0.19270    0.97632   1.00
H2       0.43400    0.06663    1.00652   1.00
H2       0.44880    0.02753    0.97528   1.00
N1       0.49140    0.07105    0.98368   1.00
C6       0.50477    0.10690    0.99257   1.00
C6       0.52255    0.04743    0.97973   1.00
C6       0.54498    0.10627    0.99415   1.00
C6       0.55629    0.06844    0.98598   1.00
H3       0.48652    0.13219    0.99767   1.00
H3       0.52095    0.01669    0.97259   1.00
H3       0.56396    0.13064    1.00060   1.00
H3       0.58581    0.05742    0.98475   1.00
H2       0.42857    0.30272    0.84903   1.00
H2       0.46062    0.26499    0.83236   1.00
N1       0.40264    0.25977    0.81302   1.00
C6       0.37533    0.28422    0.79376   1.00
C6       0.39714    0.22215    0.79657   1.00
C6       0.35451    0.26223    0.76719   1.00
C6       0.36789    0.22409    0.76892   1.00
H3       0.37157    0.31508    0.79929   1.00
H3       0.41318    0.19624    0.80489   1.00
H3       0.33163    0.27295    0.74831   1.00
H3       0.35720    0.19995    0.75167   1.00
C4       0.41494    0.41538    0.68585   1.00
C4       0.41506    0.41462    0.64415   1.00
C3       0.38052    0.42269    0.70749   1.00
C3       0.38427    0.39771    0.62248   1.00
C3       0.44925    0.40797    0.70762   1.00
C3       0.44578    0.43165    0.62241   1.00
C2       0.41484    0.41497    0.77018   1.00
C2       0.41484    0.41497    0.55982   1.00
C3a      0.38032    0.42253    0.74901   1.00
C3       0.38424    0.39790    0.58118   1.00
C3       0.44914    0.40778    0.74889   1.00
C3a      0.44586    0.43191    0.58097   1.00
H1       0.35366    0.42886    0.69206   1.00
H1       0.36016    0.38388    0.63750   1.00
C5       0.34313    0.43063    0.77090   1.00
H1       0.36014    0.38461    0.56567   1.00
H1       0.47595    0.40169    0.76444   1.00
C5       0.47947    0.45048    0.55965   1.00
H1       0.46951    0.44597    0.63753   1.00
H1       0.47632    0.40147    0.69270   1.00
H2       0.50652    0.43400    0.56663   1.00
H2       0.47528    0.44880    0.52753   1.00
N1       0.48368    0.49140    0.57105   1.00
C6       0.49257    0.50477    0.60690   1.00
C6       0.47973    0.52255    0.54743   1.00
C6       0.49415    0.54498    0.60627   1.00
C6       0.48598    0.55629    0.56844   1.00
H3       0.49767    0.48652    0.63219   1.00
H3       0.47259    0.52095    0.51669   1.00
H3       0.50060    0.56396    0.63064   1.00
H3       0.48475    0.58581    0.55742   1.00
H2       0.34903    0.42857    0.80272   1.00
H2       0.33236    0.46062    0.76499   1.00
N1       0.31302    0.40264    0.75977   1.00
C6       0.29376    0.37533    0.78422   1.00
C6       0.29657    0.39714    0.72215   1.00
C6       0.26719    0.35451    0.76223   1.00
C6       0.26892    0.36789    0.72409   1.00
H3       0.29929    0.37157    0.81508   1.00
H3       0.30489    0.41318    0.69624   1.00
H3       0.24831    0.33163    0.77295   1.00
H3       0.25167    0.35720    0.69995   1.00
C4       0.41494    0.91462    0.64415   1.00
C4       0.41506    0.91538    0.68585   1.00
C3       0.38052    0.90731    0.62251   1.00
C3       0.38427    0.93229    0.70752   1.00
C3       0.44925    0.92203    0.62238   1.00
C3       0.44578    0.89835    0.70759   1.00
C2       0.41484    0.91503    0.55982   1.00
C2       0.41484    0.91503    0.77018   1.00
C3a      0.38032    0.90747    0.58099   1.00
C3       0.38424    0.93210    0.74882   1.00
C3       0.44914    0.92222    0.58111   1.00
C3a      0.44586    0.89809    0.74903   1.00
H1       0.35366    0.90114    0.63794   1.00
H1       0.36016    0.94612    0.69250   1.00
C5       0.34313    0.89937    0.55910   1.00
H1       0.36014    0.94539    0.76433   1.00
H1       0.47595    0.92831    0.56556   1.00
C5       0.47947    0.87952    0.77035   1.00
H1       0.46951    0.88403    0.69247   1.00
H1       0.47632    0.92853    0.63730   1.00
H2       0.50652    0.89600    0.76337   1.00
H2       0.47528    0.88120    0.80247   1.00
N1       0.48368    0.83860    0.75895   1.00
C6       0.49257    0.82523    0.72310   1.00
C6       0.47973    0.80745    0.78257   1.00
C6       0.49415    0.78502    0.72373   1.00
C6       0.48598    0.77371    0.76156   1.00
H3       0.49767    0.84348    0.69781   1.00
H3       0.47259    0.80905    0.81331   1.00
H3       0.50060    0.76604    0.69936   1.00
H3       0.48475    0.74419    0.77258   1.00
H2       0.34903    0.90143    0.52728   1.00
H2       0.33236    0.86938    0.56501   1.00
N1       0.31302    0.92736    0.57023   1.00
C6       0.29376    0.95467    0.54578   1.00
C6       0.29657    0.93286    0.60785   1.00
C6       0.26719    0.97549    0.56777   1.00
C6       0.26892    0.96211    0.60591   1.00
H3       0.29929    0.95843    0.51492   1.00
H3       0.30489    0.91682    0.63376   1.00
H3       0.24831    0.99837    0.55705   1.00
H3       0.25167    0.97280    0.63005   1.00
C4       0.41462    1.14415    0.41494   1.00
C4       0.41538    1.18585    0.41506   1.00
C3       0.40731    1.12251    0.38052   1.00
C3       0.43229    1.20752    0.38427   1.00
C3       0.42203    1.12238    0.44925   1.00
C3       0.39835    1.20759    0.44578   1.00
C2       0.41503    1.05982    0.41484   1.00
C2       0.41503    1.27018    0.41484   1.00
C3a      0.40747    1.08099    0.38032   1.00
C3       0.43210    1.24882    0.38424   1.00
C3       0.42222    1.08111    0.44914   1.00
C3a      0.39809    1.24903    0.44586   1.00
H1       0.40114    1.13794    0.35366   1.00
H1       0.44612    1.19250    0.36016   1.00
C5       0.39937    1.05910    0.34313   1.00
H1       0.44539    1.26433    0.36014   1.00
H1       0.42831    1.06556    0.47595   1.00
C5       0.37952    1.27035    0.47947   1.00
H1       0.38403    1.19247    0.46951   1.00
H1       0.42853    1.13730    0.47632   1.00
H2       0.39600    1.26337    0.50652   1.00
H2       0.38120    1.30247    0.47528   1.00
N1       0.33860    1.25895    0.48368   1.00
C6       0.32523    1.22310    0.49257   1.00
C6       0.30745    1.28257    0.47973   1.00
C6       0.28502    1.22373    0.49415   1.00
C6       0.27371    1.26156    0.48598   1.00
H3       0.34348    1.19781    0.49767   1.00
H3       0.30905    1.31331    0.47259   1.00
H3       0.26604    1.19936    0.50060   1.00
H3       0.24419    1.27258    0.48475   1.00
H2       0.40143    1.02728    0.34903   1.00
H2       0.36938    1.06501    0.33236   1.00
N1       0.42736    1.07023    0.31302   1.00
C6       0.45467    1.04578    0.29376   1.00
C6       0.43286    1.10785    0.29657   1.00
C6       0.47549    1.06777    0.26719   1.00
C6       0.46211    1.10591    0.26892   1.00
H3       0.45843    1.01492    0.29929   1.00
H3       0.41682    1.13376    0.30489   1.00
H3       0.49837    1.05705    0.24831   1.00
H3       0.47280    1.13005    0.25167   1.00
C4       0.18585    0.91494    0.41538   1.00
C4       0.14415    0.91506    0.41462   1.00
C3       0.20749    0.88052    0.42269   1.00
C3       0.12248    0.88427    0.39771   1.00
C3       0.20762    0.94925    0.40797   1.00
C3       0.12241    0.94578    0.43165   1.00
C2       0.27018    0.91484    0.41497   1.00
C2       0.05982    0.91484    0.41497   1.00
C3a      0.24901    0.88032    0.42253   1.00
C3       0.08118    0.88424    0.39790   1.00
C3       0.24889    0.94914    0.40778   1.00
C3a      0.08097    0.94586    0.43191   1.00
H1       0.19206    0.85366    0.42886   1.00
H1       0.13750    0.86016    0.38388   1.00
C5       0.27090    0.84313    0.43063   1.00
H1       0.06567    0.86014    0.38461   1.00
H1       0.26444    0.97595    0.40169   1.00
C5       0.05965    0.97947    0.45048   1.00
H1       0.13753    0.96951    0.44597   1.00
H1       0.19270    0.97632    0.40147   1.00
H2       0.06663    1.00652    0.43400   1.00
H2       0.02753    0.97528    0.44880   1.00
N1       0.07105    0.98368    0.49140   1.00
C6       0.10690    0.99257    0.50477   1.00
C6       0.04743    0.97973    0.52255   1.00
C6       0.10627    0.99415    0.54498   1.00
C6       0.06844    0.98598    0.55629   1.00
H3       0.13219    0.99767    0.48652   1.00
H3       0.01669    0.97259    0.52095   1.00
H3       0.13064    1.00060    0.56396   1.00
H3       0.05742    0.98475    0.58581   1.00
H2       0.30272    0.84903    0.42857   1.00
H2       0.26499    0.83236    0.46062   1.00
N1       0.25977    0.81302    0.40264   1.00
C6       0.28422    0.79376    0.37533   1.00
C6       0.22215    0.79657    0.39714   1.00
C6       0.26223    0.76719    0.35451   1.00
C6       0.22409    0.76892    0.36789   1.00
H3       0.31508    0.79929    0.37157   1.00
H3       0.19624    0.80489    0.41318   1.00
H3       0.27295    0.74831    0.33163   1.00
H3       0.19995    0.75167    0.35720   1.00
C4       0.64415    0.91494    0.41462   1.00
C4       0.68585    0.91506    0.41538   1.00
C3       0.62251    0.88052    0.40731   1.00
C3       0.70752    0.88427    0.43229   1.00
C3       0.62238    0.94925    0.42203   1.00
C3       0.70759    0.94578    0.39835   1.00
C2       0.55982    0.91484    0.41503   1.00
C2       0.77018    0.91484    0.41503   1.00
C3a      0.58099    0.88032    0.40747   1.00
C3       0.74882    0.88424    0.43210   1.00
C3       0.58111    0.94914    0.42222   1.00
C3a      0.74903    0.94586    0.39809   1.00
H1       0.63794    0.85366    0.40114   1.00
H1       0.69250    0.86016    0.44612   1.00
C5       0.55910    0.84313    0.39937   1.00
H1       0.76433    0.86014    0.44539   1.00
H1       0.56556    0.97595    0.42831   1.00
C5       0.77035    0.97947    0.37952   1.00
H1       0.69247    0.96951    0.38403   1.00
H1       0.63730    0.97632    0.42853   1.00
H2       0.76337    1.00652    0.39600   1.00
H2       0.80247    0.97528    0.38120   1.00
N1       0.75895    0.98368    0.33860   1.00
C6       0.72310    0.99257    0.32523   1.00
C6       0.78257    0.97973    0.30745   1.00
C6       0.72373    0.99415    0.28502   1.00
C6       0.76156    0.98598    0.27371   1.00
H3       0.69781    0.99767    0.34348   1.00
H3       0.81331    0.97259    0.30905   1.00
H3       0.69936    1.00060    0.26604   1.00
H3       0.77258    0.98475    0.24419   1.00
H2       0.52728    0.84903    0.40143   1.00
H2       0.56501    0.83236    0.36938   1.00
N1       0.57023    0.81302    0.42736   1.00
C6       0.54578    0.79376    0.45467   1.00
C6       0.60785    0.79657    0.43286   1.00
C6       0.56777    0.76719    0.47549   1.00
C6       0.60591    0.76892    0.46211   1.00
H3       0.51492    0.79929    0.45843   1.00
H3       0.63376    0.80489    0.41682   1.00
H3       0.55705    0.74831    0.49837   1.00
H3       0.63005    0.75167    0.47280   1.00
C4       0.41538    0.68585    0.41494   1.00
C4       0.41462    0.64415    0.41506   1.00
C3       0.42269    0.70749    0.38052   1.00
C3       0.39771    0.62248    0.38427   1.00
C3       0.40797    0.70762    0.44925   1.00
C3       0.43165    0.62241    0.44578   1.00
C2       0.41497    0.77018    0.41484   1.00
C2       0.41497    0.55982    0.41484   1.00
C3a      0.42253    0.74901    0.38032   1.00
C3       0.39790    0.58118    0.38424   1.00
C3       0.40778    0.74889    0.44914   1.00
C3a      0.43191    0.58097    0.44586   1.00
H1       0.42886    0.69206    0.35366   1.00
H1       0.38388    0.63750    0.36016   1.00
C5       0.43063    0.77090    0.34313   1.00
H1       0.38461    0.56567    0.36014   1.00
H1       0.40169    0.76444    0.47595   1.00
C5       0.45048    0.55965    0.47947   1.00
H1       0.44597    0.63753    0.46951   1.00
H1       0.40147    0.69270    0.47632   1.00
H2       0.43400    0.56663    0.50652   1.00
H2       0.44880    0.52753    0.47528   1.00
N1       0.49140    0.57105    0.48368   1.00
C6       0.50477    0.60690    0.49257   1.00
C6       0.52255    0.54743    0.47973   1.00
C6       0.54498    0.60627    0.49415   1.00
C6       0.55629    0.56844    0.48598   1.00
H3       0.48652    0.63219    0.49767   1.00
H3       0.52095    0.51669    0.47259   1.00
H3       0.56396    0.63064    0.50060   1.00
H3       0.58581    0.55742    0.48475   1.00
H2       0.42857    0.80272    0.34903   1.00
H2       0.46062    0.76499    0.33236   1.00
N1       0.40264    0.75977    0.31302   1.00
C6       0.37533    0.78422    0.29376   1.00
C6       0.39714    0.72215    0.29657   1.00
C6       0.35451    0.76223    0.26719   1.00
C6       0.36789    0.72409    0.26892   1.00
H3       0.37157    0.81508    0.29929   1.00
H3       0.41318    0.69624    0.30489   1.00
H3       0.33163    0.77295    0.24831   1.00
H3       0.35720    0.69995    0.25167   1.00
C4       0.41494    0.91538    0.18585   1.00
C4       0.41506    0.91462    0.14415   1.00
C3       0.38052    0.92269    0.20749   1.00
C3       0.38427    0.89771    0.12248   1.00
C3       0.44925    0.90797    0.20762   1.00
C3       0.44578    0.93165    0.12241   1.00
C2       0.41484    0.91497    0.27018   1.00
C2       0.41484    0.91497    0.05982   1.00
C3a      0.38032    0.92253    0.24901   1.00
C3       0.38424    0.89790    0.08118   1.00
C3       0.44914    0.90778    0.24889   1.00
C3a      0.44586    0.93191    0.08097   1.00
H1       0.35366    0.92886    0.19206   1.00
H1       0.36016    0.88388    0.13750   1.00
C5       0.34313    0.93063    0.27090   1.00
H1       0.36014    0.88461    0.06567   1.00
H1       0.47595    0.90169    0.26444   1.00
C5       0.47947    0.95048    0.05965   1.00
H1       0.46951    0.94597    0.13753   1.00
H1       0.47632    0.90147    0.19270   1.00
H2       0.50652    0.93400    0.06663   1.00
H2       0.47528    0.94880    0.02753   1.00
N1       0.48368    0.99140    0.07105   1.00
C6       0.49257    1.00477    0.10690   1.00
C6       0.47973    1.02255    0.04743   1.00
C6       0.49415    1.04498    0.10627   1.00
C6       0.48598    1.05629    0.06844   1.00
H3       0.49767    0.98652    0.13219   1.00
H3       0.47259    1.02095    0.01669   1.00
H3       0.50060    1.06396    0.13064   1.00
H3       0.48475    1.08581    0.05742   1.00
H2       0.34903    0.92857    0.30272   1.00
H2       0.33236    0.96062    0.26499   1.00
N1       0.31302    0.90264    0.25977   1.00
C6       0.29376    0.87533    0.28422   1.00
C6       0.29657    0.89714    0.22215   1.00
C6       0.26719    0.85451    0.26223   1.00
C6       0.26892    0.86789    0.22409   1.00
H3       0.29929    0.87157    0.31508   1.00
H3       0.30489    0.91318    0.19624   1.00
H3       0.24831    0.83163    0.27295   1.00
H3       0.25167    0.85720    0.19995   1.00
C4       0.91494    0.41462    0.64415   1.00
C4       0.91506    0.41538    0.68585   1.00
C3       0.88052    0.40731    0.62251   1.00
C3       0.88427    0.43229    0.70752   1.00
C3       0.94925    0.42203    0.62238   1.00
C3       0.94578    0.39835    0.70759   1.00
C2       0.91484    0.41503    0.55982   1.00
C2       0.91484    0.41503    0.77018   1.00
C3a      0.88032    0.40747    0.58099   1.00
C3       0.88424    0.43210    0.74882   1.00
C3       0.94914    0.42222    0.58111   1.00
C3a      0.94586    0.39809    0.74903   1.00
H1       0.85366    0.40114    0.63794   1.00
H1       0.86016    0.44612    0.69250   1.00
C5       0.84313    0.39937    0.55910   1.00
H1       0.86014    0.44539    0.76433   1.00
H1       0.97595    0.42831    0.56556   1.00
C5       0.97947    0.37952    0.77035   1.00
H1       0.96951    0.38403    0.69247   1.00
H1       0.97632    0.42853    0.63730   1.00
H2       1.00652    0.39600    0.76337   1.00
H2       0.97528    0.38120    0.80247   1.00
N1       0.98368    0.33860    0.75895   1.00
C6       0.99257    0.32523    0.72310   1.00
C6       0.97973    0.30745    0.78257   1.00
C6       0.99415    0.28502    0.72373   1.00
C6       0.98598    0.27371    0.76156   1.00
H3       0.99767    0.34348    0.69781   1.00
H3       0.97259    0.30905    0.81331   1.00
H3       1.00060    0.26604    0.69936   1.00
H3       0.98475    0.24419    0.77258   1.00
H2       0.84903    0.40143    0.52728   1.00
H2       0.83236    0.36938    0.56501   1.00
N1       0.81302    0.42736    0.57023   1.00
C6       0.79376    0.45467    0.54578   1.00
C6       0.79657    0.43286    0.60785   1.00
C6       0.76719    0.47549    0.56777   1.00
C6       0.76892    0.46211    0.60591   1.00
H3       0.79929    0.45843    0.51492   1.00
H3       0.80489    0.41682    0.63376   1.00
H3       0.74831    0.49837    0.55705   1.00
H3       0.75167    0.47280    0.63005   1.00
C4       0.91462    0.64415    0.41494   1.00
C4       0.91538    0.68585    0.41506   1.00
C3       0.90731    0.62251    0.38052   1.00
C3       0.93229    0.70752    0.38427   1.00
C3       0.92203    0.62238    0.44925   1.00
C3       0.89835    0.70759    0.44578   1.00
C2       0.91503    0.55982    0.41484   1.00
C2       0.91503    0.77018    0.41484   1.00
C3a      0.90747    0.58099    0.38032   1.00
C3       0.93210    0.74882    0.38424   1.00
C3       0.92222    0.58111    0.44914   1.00
C3a      0.89809    0.74903    0.44586   1.00
H1       0.90114    0.63794    0.35366   1.00
H1       0.94612    0.69250    0.36016   1.00
C5       0.89937    0.55910    0.34313   1.00
H1       0.94539    0.76433    0.36014   1.00
H1       0.92831    0.56556    0.47595   1.00
C5       0.87952    0.77035    0.47947   1.00
H1       0.88403    0.69247    0.46951   1.00
H1       0.92853    0.63730    0.47632   1.00
H2       0.89600    0.76337    0.50652   1.00
H2       0.88120    0.80247    0.47528   1.00
N1       0.83860    0.75895    0.48368   1.00
C6       0.82523    0.72310    0.49257   1.00
C6       0.80745    0.78257    0.47973   1.00
C6       0.78502    0.72373    0.49415   1.00
C6       0.77371    0.76156    0.48598   1.00
H3       0.84348    0.69781    0.49767   1.00
H3       0.80905    0.81331    0.47259   1.00
H3       0.76604    0.69936    0.50060   1.00
H3       0.74419    0.77258    0.48475   1.00
H2       0.90143    0.52728    0.34903   1.00
H2       0.86938    0.56501    0.33236   1.00
N1       0.92736    0.57023    0.31302   1.00
C6       0.95467    0.54578    0.29376   1.00
C6       0.93286    0.60785    0.29657   1.00
C6       0.97549    0.56777    0.26719   1.00
C6       0.96211    0.60591    0.26892   1.00
H3       0.95843    0.51492    0.29929   1.00
H3       0.91682    0.63376    0.30489   1.00
H3       0.99837    0.55705    0.24831   1.00
H3       0.97280    0.63005    0.25167   1.00
C4       0.68585    0.41494    0.41538   1.00
C4       0.64415    0.41506    0.41462   1.00
C3       0.70749    0.38052    0.42269   1.00
C3       0.62248    0.38427    0.39771   1.00
C3       0.70762    0.44925    0.40797   1.00
C3       0.62241    0.44578    0.43165   1.00
C2       0.77018    0.41484    0.41497   1.00
C2       0.55982    0.41484    0.41497   1.00
C3a      0.74901    0.38032    0.42253   1.00
C3       0.58118    0.38424    0.39790   1.00
C3       0.74889    0.44914    0.40778   1.00
C3a      0.58097    0.44586    0.43191   1.00
H1       0.69206    0.35366    0.42886   1.00
H1       0.63750    0.36016    0.38388   1.00
C5       0.77090    0.34313    0.43063   1.00
H1       0.56567    0.36014    0.38461   1.00
H1       0.76444    0.47595    0.40169   1.00
C5       0.55965    0.47947    0.45048   1.00
H1       0.63753    0.46951    0.44597   1.00
H1       0.69270    0.47632    0.40147   1.00
H2       0.56663    0.50652    0.43400   1.00
H2       0.52753    0.47528    0.44880   1.00
N1       0.57105    0.48368    0.49140   1.00
C6       0.60690    0.49257    0.50477   1.00
C6       0.54743    0.47973    0.52255   1.00
C6       0.60627    0.49415    0.54498   1.00
C6       0.56844    0.48598    0.55629   1.00
H3       0.63219    0.49767    0.48652   1.00
H3       0.51669    0.47259    0.52095   1.00
H3       0.63064    0.50060    0.56396   1.00
H3       0.55742    0.48475    0.58581   1.00
H2       0.80272    0.34903    0.42857   1.00
H2       0.76499    0.33236    0.46062   1.00
N1       0.75977    0.31302    0.40264   1.00
C6       0.78422    0.29376    0.37533   1.00
C6       0.72215    0.29657    0.39714   1.00
C6       0.76223    0.26719    0.35451   1.00
C6       0.72409    0.26892    0.36789   1.00
H3       0.81508    0.29929    0.37157   1.00
H3       0.69624    0.30489    0.41318   1.00
H3       0.77295    0.24831    0.33163   1.00
H3       0.69995    0.25167    0.35720   1.00
C4       1.14415    0.41494    0.41462   1.00
C4       1.18585    0.41506    0.41538   1.00
C3       1.12251    0.38052    0.40731   1.00
C3       1.20752    0.38427    0.43229   1.00
C3       1.12238    0.44925    0.42203   1.00
C3       1.20759    0.44578    0.39835   1.00
C2       1.05982    0.41484    0.41503   1.00
C2       1.27018    0.41484    0.41503   1.00
C3a      1.08099    0.38032    0.40747   1.00
C3       1.24882    0.38424    0.43210   1.00
C3       1.08111    0.44914    0.42222   1.00
C3a      1.24903    0.44586    0.39809   1.00
H1       1.13794    0.35366    0.40114   1.00
H1       1.19250    0.36016    0.44612   1.00
C5       1.05910    0.34313    0.39937   1.00
H1       1.26433    0.36014    0.44539   1.00
H1       1.06556    0.47595    0.42831   1.00
C5       1.27035    0.47947    0.37952   1.00
H1       1.19247    0.46951    0.38403   1.00
H1       1.13730    0.47632    0.42853   1.00
H2       1.26337    0.50652    0.39600   1.00
H2       1.30247    0.47528    0.38120   1.00
N1       1.25895    0.48368    0.33860   1.00
C6       1.22310    0.49257    0.32523   1.00
C6       1.28257    0.47973    0.30745   1.00
C6       1.22373    0.49415    0.28502   1.00
C6       1.26156    0.48598    0.27371   1.00
H3       1.19781    0.49767    0.34348   1.00
H3       1.31331    0.47259    0.30905   1.00
H3       1.19936    0.50060    0.26604   1.00
H3       1.27258    0.48475    0.24419   1.00
H2       1.02728    0.34903    0.40143   1.00
H2       1.06501    0.33236    0.36938   1.00
N1       1.07023    0.31302    0.42736   1.00
C6       1.04578    0.29376    0.45467   1.00
C6       1.10785    0.29657    0.43286   1.00
C6       1.06777    0.26719    0.47549   1.00
C6       1.10591    0.26892    0.46211   1.00
H3       1.01492    0.29929    0.45843   1.00
H3       1.13376    0.30489    0.41682   1.00
H3       1.05705    0.24831    0.49837   1.00
H3       1.13005    0.25167    0.47280   1.00
C4       0.91538    0.18585    0.41494   1.00
C4       0.91462    0.14415    0.41506   1.00
C3       0.92269    0.20749    0.38052   1.00
C3       0.89771    0.12248    0.38427   1.00
C3       0.90797    0.20762    0.44925   1.00
C3       0.93165    0.12241    0.44578   1.00
C2       0.91497    0.27018    0.41484   1.00
C2       0.91497    0.05982    0.41484   1.00
C3a      0.92253    0.24901    0.38032   1.00
C3       0.89790    0.08118    0.38424   1.00
C3       0.90778    0.24889    0.44914   1.00
C3a      0.93191    0.08097    0.44586   1.00
H1       0.92886    0.19206    0.35366   1.00
H1       0.88388    0.13750    0.36016   1.00
C5       0.93063    0.27090    0.34313   1.00
H1       0.88461    0.06567    0.36014   1.00
H1       0.90169    0.26444    0.47595   1.00
C5       0.95048    0.05965    0.47947   1.00
H1       0.94597    0.13753    0.46951   1.00
H1       0.90147    0.19270    0.47632   1.00
H2       0.93400    0.06663    0.50652   1.00
H2       0.94880    0.02753    0.47528   1.00
N1       0.99140    0.07105    0.48368   1.00
C6       1.00477    0.10690    0.49257   1.00
C6       1.02255    0.04743    0.47973   1.00
C6       1.04498    0.10627    0.49415   1.00
C6       1.05629    0.06844    0.48598   1.00
H3       0.98652    0.13219    0.49767   1.00
H3       1.02095    0.01669    0.47259   1.00
H3       1.06396    0.13064    0.50060   1.00
H3       1.08581    0.05742    0.48475   1.00
H2       0.92857    0.30272    0.34903   1.00
H2       0.96062    0.26499    0.33236   1.00
N1       0.90264    0.25977    0.31302   1.00
C6       0.87533    0.28422    0.29376   1.00
C6       0.89714    0.22215    0.29657   1.00
C6       0.85451    0.26223    0.26719   1.00
C6       0.86789    0.22409    0.26892   1.00
H3       0.87157    0.31508    0.29929   1.00
H3       0.91318    0.19624    0.30489   1.00
H3       0.83163    0.27295    0.24831   1.00
H3       0.85720    0.19995    0.25167   1.00
C4       0.91494    0.41538    0.18585   1.00
C4       0.91506    0.41462    0.14415   1.00
C3       0.88052    0.42269    0.20749   1.00
C3       0.88427    0.39771    0.12248   1.00
C3       0.94925    0.40797    0.20762   1.00
C3       0.94578    0.43165    0.12241   1.00
C2       0.91484    0.41497    0.27018   1.00
C2       0.91484    0.41497    0.05982   1.00
C3a      0.88032    0.42253    0.24901   1.00
C3       0.88424    0.39790    0.08118   1.00
C3       0.94914    0.40778    0.24889   1.00
C3a      0.94586    0.43191    0.08097   1.00
H1       0.85366    0.42886    0.19206   1.00
H1       0.86016    0.38388    0.13750   1.00
C5       0.84313    0.43063    0.27090   1.00
H1       0.86014    0.38461    0.06567   1.00
H1       0.97595    0.40169    0.26444   1.00
C5       0.97947    0.45048    0.05965   1.00
H1       0.96951    0.44597    0.13753   1.00
H1       0.97632    0.40147    0.19270   1.00
H2       1.00652    0.43400    0.06663   1.00
H2       0.97528    0.44880    0.02753   1.00
N1       0.98368    0.49140    0.07105   1.00
C6       0.99257    0.50477    0.10690   1.00
C6       0.97973    0.52255    0.04743   1.00
C6       0.99415    0.54498    0.10627   1.00
C6       0.98598    0.55629    0.06844   1.00
H3       0.99767    0.48652    0.13219   1.00
H3       0.97259    0.52095    0.01669   1.00
H3       1.00060    0.56396    0.13064   1.00
H3       0.98475    0.58581    0.05742   1.00
H2       0.84903    0.42857    0.30272   1.00
H2       0.83236    0.46062    0.26499   1.00
N1       0.81302    0.40264    0.25977   1.00
C6       0.79376    0.37533    0.28422   1.00
C6       0.79657    0.39714    0.22215   1.00
C6       0.76719    0.35451    0.26223   1.00
C6       0.76892    0.36789    0.22409   1.00
H3       0.79929    0.37157    0.31508   1.00
H3       0.80489    0.41318    0.19624   1.00
H3       0.74831    0.33163    0.27295   1.00
H3       0.75167    0.35720    0.19995   1.00
