data_IRMOF10_SG202_interpen_Ligand10cp_label_o.

_audit_creation_method             'generated by an auxiliary program of Tobunporous'

_symmetry_space_group_name_H-M     'P 1'
_symmetry_Int_Tables_number        1
_symmetry_cell_setting             triclinic

_cell_length_a                    34.2800
_cell_length_b                    34.2800
_cell_length_c                    34.2800
_cell_angle_alpha                 90.0000
_cell_angle_beta                  90.0000
_cell_angle_gamma                 90.0000

loop_
_atom_site_label
_atom_site_fract_x
_atom_site_fract_y
_atom_site_fract_z
_atom_site_occupancy
O1       0.75000    0.75000    0.75000   1.00
Zn1      0.71720    0.78280    0.78280   1.00
Zn1      0.78280    0.71720    0.78280   1.00
Zn1      0.78280    0.78280    0.71720   1.00
Zn1      0.71720    0.71720    0.71720   1.00
O2       0.72650    0.77350    0.83820   1.00
O2       0.72650    0.83820    0.77350   1.00
O2       0.66180    0.77350    0.77350   1.00
O2       0.77350    0.72650    0.83820   1.00
O2       0.83820    0.72650    0.77350   1.00
O2       0.77350    0.66180    0.77350   1.00
O2       0.77350    0.83820    0.72650   1.00
O2       0.83820    0.77350    0.72650   1.00
O2       0.77350    0.77350    0.66180   1.00
O2       0.66180    0.72650    0.72650   1.00
O2       0.72650    0.66180    0.72650   1.00
O2       0.72650    0.72650    0.66180   1.00
C1       0.75000    0.75000    0.85520   1.00
C1       0.75000    0.85520    0.75000   1.00
C1       0.64480    0.75000    0.75000   1.00
C1       0.85520    0.75000    0.75000   1.00
C1       0.75000    0.64480    0.75000   1.00
C1       0.75000    0.75000    0.64480   1.00
O1       0.25000    0.25000    0.75000   1.00
Zn1      0.21720    0.28280    0.78280   1.00
Zn1      0.28280    0.21720    0.78280   1.00
Zn1      0.28280    0.28280    0.71720   1.00
Zn1      0.21720    0.21720    0.71720   1.00
O2       0.22650    0.27350    0.83820   1.00
O2       0.22650    0.33820    0.77350   1.00
O2       0.16180    0.27350    0.77350   1.00
O2       0.27350    0.22650    0.83820   1.00
O2       0.33820    0.22650    0.77350   1.00
O2       0.27350    0.16180    0.77350   1.00
O2       0.27350    0.33820    0.72650   1.00
O2       0.33820    0.27350    0.72650   1.00
O2       0.27350    0.27350    0.66180   1.00
O2       0.16180    0.22650    0.72650   1.00
O2       0.22650    0.16180    0.72650   1.00
O2       0.22650    0.22650    0.66180   1.00
C1       0.25000    0.25000    0.85520   1.00
C1       0.25000    0.35520    0.75000   1.00
C1       0.14480    0.25000    0.75000   1.00
C1       0.35520    0.25000    0.75000   1.00
C1       0.25000    0.14480    0.75000   1.00
C1       0.25000    0.25000    0.64480   1.00
O1       0.25000    0.75000    0.25000   1.00
Zn1      0.21720    0.78280    0.28280   1.00
Zn1      0.28280    0.71720    0.28280   1.00
Zn1      0.28280    0.78280    0.21720   1.00
Zn1      0.21720    0.71720    0.21720   1.00
O2       0.22650    0.77350    0.33820   1.00
O2       0.22650    0.83820    0.27350   1.00
O2       0.16180    0.77350    0.27350   1.00
O2       0.27350    0.72650    0.33820   1.00
O2       0.33820    0.72650    0.27350   1.00
O2       0.27350    0.66180    0.27350   1.00
O2       0.27350    0.83820    0.22650   1.00
O2       0.33820    0.77350    0.22650   1.00
O2       0.27350    0.77350    0.16180   1.00
O2       0.16180    0.72650    0.22650   1.00
O2       0.22650    0.66180    0.22650   1.00
O2       0.22650    0.72650    0.16180   1.00
C1       0.25000    0.75000    0.35520   1.00
C1       0.25000    0.85520    0.25000   1.00
C1       0.14480    0.75000    0.25000   1.00
C1       0.35520    0.75000    0.25000   1.00
C1       0.25000    0.64480    0.25000   1.00
C1       0.25000    0.75000    0.14480   1.00
O1       0.75000    0.25000    0.25000   1.00
Zn1      0.71720    0.28280    0.28280   1.00
Zn1      0.78280    0.21720    0.28280   1.00
Zn1      0.78280    0.28280    0.21720   1.00
Zn1      0.71720    0.21720    0.21720   1.00
O2       0.72650    0.27350    0.33820   1.00
O2       0.72650    0.33820    0.27350   1.00
O2       0.66180    0.27350    0.27350   1.00
O2       0.77350    0.22650    0.33820   1.00
O2       0.83820    0.22650    0.27350   1.00
O2       0.77350    0.16180    0.27350   1.00
O2       0.77350    0.33820    0.22650   1.00
O2       0.83820    0.27350    0.22650   1.00
O2       0.77350    0.27350    0.16180   1.00
O2       0.66180    0.22650    0.22650   1.00
O2       0.72650    0.16180    0.22650   1.00
O2       0.72650    0.22650    0.16180   1.00
C1       0.75000    0.25000    0.35520   1.00
C1       0.75000    0.35520    0.25000   1.00
C1       0.64480    0.25000    0.25000   1.00
C1       0.85520    0.25000    0.25000   1.00
C1       0.75000    0.14480    0.25000   1.00
C1       0.75000    0.25000    0.14480   1.00
O1       0.25000    0.25000    0.25000   1.00
Zn1      0.28280    0.21720    0.21720   1.00
Zn1      0.21720    0.28280    0.21720   1.00
Zn1      0.21720    0.21720    0.28280   1.00
Zn1      0.28280    0.28280    0.28280   1.00
O2       0.27350    0.22650    0.16180   1.00
O2       0.27350    0.16180    0.22650   1.00
O2       0.33820    0.22650    0.22650   1.00
O2       0.22650    0.27350    0.16180   1.00
O2       0.16180    0.27350    0.22650   1.00
O2       0.22650    0.33820    0.22650   1.00
O2       0.22650    0.16180    0.27350   1.00
O2       0.16180    0.22650    0.27350   1.00
O2       0.22650    0.22650    0.33820   1.00
O2       0.33820    0.27350    0.27350   1.00
O2       0.27350    0.33820    0.27350   1.00
O2       0.27350    0.27350    0.33820   1.00
C1       0.25000    0.25000    0.14480   1.00
C1       0.25000    0.14480    0.25000   1.00
C1       0.35520    0.25000    0.25000   1.00
C1       0.14480    0.25000    0.25000   1.00
C1       0.25000    0.35520    0.25000   1.00
C1       0.25000    0.25000    0.35520   1.00
O1       0.75000    0.75000    0.25000   1.00
Zn1      0.78280    0.71720    0.21720   1.00
Zn1      0.71720    0.78280    0.21720   1.00
Zn1      0.71720    0.71720    0.28280   1.00
Zn1      0.78280    0.78280    0.28280   1.00
O2       0.77350    0.72650    0.16180   1.00
O2       0.77350    0.66180    0.22650   1.00
O2       0.83820    0.72650    0.22650   1.00
O2       0.72650    0.77350    0.16180   1.00
O2       0.66180    0.77350    0.22650   1.00
O2       0.72650    0.83820    0.22650   1.00
O2       0.72650    0.66180    0.27350   1.00
O2       0.66180    0.72650    0.27350   1.00
O2       0.72650    0.72650    0.33820   1.00
O2       0.83820    0.77350    0.27350   1.00
O2       0.77350    0.83820    0.27350   1.00
O2       0.77350    0.77350    0.33820   1.00
C1       0.75000    0.75000    0.14480   1.00
C1       0.75000    0.64480    0.25000   1.00
C1       0.85520    0.75000    0.25000   1.00
C1       0.64480    0.75000    0.25000   1.00
C1       0.75000    0.85520    0.25000   1.00
C1       0.75000    0.75000    0.35520   1.00
O1       0.75000    0.25000    0.75000   1.00
Zn1      0.78280    0.21720    0.71720   1.00
Zn1      0.71720    0.28280    0.71720   1.00
Zn1      0.71720    0.21720    0.78280   1.00
Zn1      0.78280    0.28280    0.78280   1.00
O2       0.77350    0.22650    0.66180   1.00
O2       0.77350    0.16180    0.72650   1.00
O2       0.83820    0.22650    0.72650   1.00
O2       0.72650    0.27350    0.66180   1.00
O2       0.66180    0.27350    0.72650   1.00
O2       0.72650    0.33820    0.72650   1.00
O2       0.72650    0.16180    0.77350   1.00
O2       0.66180    0.22650    0.77350   1.00
O2       0.72650    0.22650    0.83820   1.00
O2       0.83820    0.27350    0.77350   1.00
O2       0.77350    0.33820    0.77350   1.00
O2       0.77350    0.27350    0.83820   1.00
C1       0.75000    0.25000    0.64480   1.00
C1       0.75000    0.14480    0.75000   1.00
C1       0.85520    0.25000    0.75000   1.00
C1       0.64480    0.25000    0.75000   1.00
C1       0.75000    0.35520    0.75000   1.00
C1       0.75000    0.25000    0.85520   1.00
O1       0.25000    0.75000    0.75000   1.00
Zn1      0.28280    0.71720    0.71720   1.00
Zn1      0.21720    0.78280    0.71720   1.00
Zn1      0.21720    0.71720    0.78280   1.00
Zn1      0.28280    0.78280    0.78280   1.00
O2       0.27350    0.72650    0.66180   1.00
O2       0.27350    0.66180    0.72650   1.00
O2       0.33820    0.72650    0.72650   1.00
O2       0.22650    0.77350    0.66180   1.00
O2       0.16180    0.77350    0.72650   1.00
O2       0.22650    0.83820    0.72650   1.00
O2       0.22650    0.66180    0.77350   1.00
O2       0.16180    0.72650    0.77350   1.00
O2       0.22650    0.72650    0.83820   1.00
O2       0.33820    0.77350    0.77350   1.00
O2       0.27350    0.83820    0.77350   1.00
O2       0.27350    0.77350    0.83820   1.00
C1       0.25000    0.75000    0.64480   1.00
C1       0.25000    0.64480    0.75000   1.00
C1       0.35520    0.75000    0.75000   1.00
C1       0.14480    0.75000    0.75000   1.00
C1       0.25000    0.85520    0.75000   1.00
C1       0.25000    0.75000    0.85520   1.00
O1       0.91500    0.91500    0.91500   1.00
Zn1      0.88220    0.94780    0.94780   1.00
Zn1      0.94780    0.88220    0.94780   1.00
Zn1      0.94780    0.94780    0.88220   1.00
Zn1      0.88220    0.88220    0.88220   1.00
O2       0.89150    0.93850    1.00320   1.00
O2       0.89150    1.00320    0.93850   1.00
O2       0.82680    0.93850    0.93850   1.00
O2       0.93850    0.89150    1.00320   1.00
O2       1.00320    0.89150    0.93850   1.00
O2       0.93850    0.82680    0.93850   1.00
O2       0.93850    1.00320    0.89150   1.00
O2       1.00320    0.93850    0.89150   1.00
O2       0.93850    0.93850    0.82680   1.00
O2       0.82680    0.89150    0.89150   1.00
O2       0.89150    0.82680    0.89150   1.00
O2       0.89150    0.89150    0.82680   1.00
C1       0.91500    0.91500    1.02020   1.00
C1       0.91500    1.02020    0.91500   1.00
C1       0.80980    0.91500    0.91500   1.00
C1       1.02020    0.91500    0.91500   1.00
C1       0.91500    0.80980    0.91500   1.00
C1       0.91500    0.91500    0.80980   1.00
O1       0.41500    0.41500    0.91500   1.00
Zn1      0.38220    0.44780    0.94780   1.00
Zn1      0.44780    0.38220    0.94780   1.00
Zn1      0.44780    0.44780    0.88220   1.00
Zn1      0.38220    0.38220    0.88220   1.00
O2       0.39150    0.43850    1.00320   1.00
O2       0.39150    0.50320    0.93850   1.00
O2       0.32680    0.43850    0.93850   1.00
O2       0.43850    0.39150    1.00320   1.00
O2       0.50320    0.39150    0.93850   1.00
O2       0.43850    0.32680    0.93850   1.00
O2       0.43850    0.50320    0.89150   1.00
O2       0.50320    0.43850    0.89150   1.00
O2       0.43850    0.43850    0.82680   1.00
O2       0.32680    0.39150    0.89150   1.00
O2       0.39150    0.32680    0.89150   1.00
O2       0.39150    0.39150    0.82680   1.00
C1       0.41500    0.41500    1.02020   1.00
C1       0.41500    0.52020    0.91500   1.00
C1       0.30980    0.41500    0.91500   1.00
C1       0.52020    0.41500    0.91500   1.00
C1       0.41500    0.30980    0.91500   1.00
C1       0.41500    0.41500    0.80980   1.00
O1       0.41500    0.91500    0.41500   1.00
Zn1      0.38220    0.94780    0.44780   1.00
Zn1      0.44780    0.88220    0.44780   1.00
Zn1      0.44780    0.94780    0.38220   1.00
Zn1      0.38220    0.88220    0.38220   1.00
O2       0.39150    0.93850    0.50320   1.00
O2       0.39150    1.00320    0.43850   1.00
O2       0.32680    0.93850    0.43850   1.00
O2       0.43850    0.89150    0.50320   1.00
O2       0.50320    0.89150    0.43850   1.00
O2       0.43850    0.82680    0.43850   1.00
O2       0.43850    1.00320    0.39150   1.00
O2       0.50320    0.93850    0.39150   1.00
O2       0.43850    0.93850    0.32680   1.00
O2       0.32680    0.89150    0.39150   1.00
O2       0.39150    0.82680    0.39150   1.00
O2       0.39150    0.89150    0.32680   1.00
C1       0.41500    0.91500    0.52020   1.00
C1       0.41500    1.02020    0.41500   1.00
C1       0.30980    0.91500    0.41500   1.00
C1       0.52020    0.91500    0.41500   1.00
C1       0.41500    0.80980    0.41500   1.00
C1       0.41500    0.91500    0.30980   1.00
O1       0.91500    0.41500    0.41500   1.00
Zn1      0.88220    0.44780    0.44780   1.00
Zn1      0.94780    0.38220    0.44780   1.00
Zn1      0.94780    0.44780    0.38220   1.00
Zn1      0.88220    0.38220    0.38220   1.00
O2       0.89150    0.43850    0.50320   1.00
O2       0.89150    0.50320    0.43850   1.00
O2       0.82680    0.43850    0.43850   1.00
O2       0.93850    0.39150    0.50320   1.00
O2       1.00320    0.39150    0.43850   1.00
O2       0.93850    0.32680    0.43850   1.00
O2       0.93850    0.50320    0.39150   1.00
O2       1.00320    0.43850    0.39150   1.00
O2       0.93850    0.43850    0.32680   1.00
O2       0.82680    0.39150    0.39150   1.00
O2       0.89150    0.32680    0.39150   1.00
O2       0.89150    0.39150    0.32680   1.00
C1       0.91500    0.41500    0.52020   1.00
C1       0.91500    0.52020    0.41500   1.00
C1       0.80980    0.41500    0.41500   1.00
C1       1.02020    0.41500    0.41500   1.00
C1       0.91500    0.30980    0.41500   1.00
C1       0.91500    0.41500    0.30980   1.00
O1       0.41500    0.41500    0.41500   1.00
Zn1      0.44780    0.38220    0.38220   1.00
Zn1      0.38220    0.44780    0.38220   1.00
Zn1      0.38220    0.38220    0.44780   1.00
Zn1      0.44780    0.44780    0.44780   1.00
O2       0.43850    0.39150    0.32680   1.00
O2       0.43850    0.32680    0.39150   1.00
O2       0.50320    0.39150    0.39150   1.00
O2       0.39150    0.43850    0.32680   1.00
O2       0.32680    0.43850    0.39150   1.00
O2       0.39150    0.50320    0.39150   1.00
O2       0.39150    0.32680    0.43850   1.00
O2       0.32680    0.39150    0.43850   1.00
O2       0.39150    0.39150    0.50320   1.00
O2       0.50320    0.43850    0.43850   1.00
O2       0.43850    0.50320    0.43850   1.00
O2       0.43850    0.43850    0.50320   1.00
C1       0.41500    0.41500    0.30980   1.00
C1       0.41500    0.30980    0.41500   1.00
C1       0.52020    0.41500    0.41500   1.00
C1       0.30980    0.41500    0.41500   1.00
C1       0.41500    0.52020    0.41500   1.00
C1       0.41500    0.41500    0.52020   1.00
O1       0.91500    0.91500    0.41500   1.00
Zn1      0.94780    0.88220    0.38220   1.00
Zn1      0.88220    0.94780    0.38220   1.00
Zn1      0.88220    0.88220    0.44780   1.00
Zn1      0.94780    0.94780    0.44780   1.00
O2       0.93850    0.89150    0.32680   1.00
O2       0.93850    0.82680    0.39150   1.00
O2       1.00320    0.89150    0.39150   1.00
O2       0.89150    0.93850    0.32680   1.00
O2       0.82680    0.93850    0.39150   1.00
O2       0.89150    1.00320    0.39150   1.00
O2       0.89150    0.82680    0.43850   1.00
O2       0.82680    0.89150    0.43850   1.00
O2       0.89150    0.89150    0.50320   1.00
O2       1.00320    0.93850    0.43850   1.00
O2       0.93850    1.00320    0.43850   1.00
O2       0.93850    0.93850    0.50320   1.00
C1       0.91500    0.91500    0.30980   1.00
C1       0.91500    0.80980    0.41500   1.00
C1       1.02020    0.91500    0.41500   1.00
C1       0.80980    0.91500    0.41500   1.00
C1       0.91500    1.02020    0.41500   1.00
C1       0.91500    0.91500    0.52020   1.00
O1       0.91500    0.41500    0.91500   1.00
Zn1      0.94780    0.38220    0.88220   1.00
Zn1      0.88220    0.44780    0.88220   1.00
Zn1      0.88220    0.38220    0.94780   1.00
Zn1      0.94780    0.44780    0.94780   1.00
O2       0.93850    0.39150    0.82680   1.00
O2       0.93850    0.32680    0.89150   1.00
O2       1.00320    0.39150    0.89150   1.00
O2       0.89150    0.43850    0.82680   1.00
O2       0.82680    0.43850    0.89150   1.00
O2       0.89150    0.50320    0.89150   1.00
O2       0.89150    0.32680    0.93850   1.00
O2       0.82680    0.39150    0.93850   1.00
O2       0.89150    0.39150    1.00320   1.00
O2       1.00320    0.43850    0.93850   1.00
O2       0.93850    0.50320    0.93850   1.00
O2       0.93850    0.43850    1.00320   1.00
C1       0.91500    0.41500    0.80980   1.00
C1       0.91500    0.30980    0.91500   1.00
C1       1.02020    0.41500    0.91500   1.00
C1       0.80980    0.41500    0.91500   1.00
C1       0.91500    0.52020    0.91500   1.00
C1       0.91500    0.41500    1.02020   1.00
O1       0.41500    0.91500    0.91500   1.00
Zn1      0.44780    0.88220    0.88220   1.00
Zn1      0.38220    0.94780    0.88220   1.00
Zn1      0.38220    0.88220    0.94780   1.00
Zn1      0.44780    0.94780    0.94780   1.00
O2       0.43850    0.89150    0.82680   1.00
O2       0.43850    0.82680    0.89150   1.00
O2       0.50320    0.89150    0.89150   1.00
O2       0.39150    0.93850    0.82680   1.00
O2       0.32680    0.93850    0.89150   1.00
O2       0.39150    1.00320    0.89150   1.00
O2       0.39150    0.82680    0.93850   1.00
O2       0.32680    0.89150    0.93850   1.00
O2       0.39150    0.89150    1.00320   1.00
O2       0.50320    0.93850    0.93850   1.00
O2       0.43850    1.00320    0.93850   1.00
O2       0.43850    0.93850    1.00320   1.00
C1       0.41500    0.91500    0.80980   1.00
C1       0.41500    0.80980    0.91500   1.00
C1       0.52020    0.91500    0.91500   1.00
C1       0.30980    0.91500    0.91500   1.00
C1       0.41500    1.02020    0.91500   1.00
C1       0.41500    0.91500    1.02020   1.00
C4       0.75013    0.74964    0.97915   1.00
C4       0.74987    0.75036    1.02085   1.00
C3       0.72398    0.72610    0.95751   1.00
C3       0.71474    0.74961    1.04252   1.00
C3       0.77615    0.77321    0.95738   1.00
C3       0.78498    0.75097    1.04259   1.00
C2       0.74985    0.74994    0.89482   1.00
C2       0.74985    0.74994    1.10518   1.00
C3a      0.72373    0.72613    0.91599   1.00
C3       0.71481    0.74942    1.08382   1.00
C3       0.77595    0.77332    0.91611   1.00
C3a      0.78518    0.75079    1.08403   1.00
H1       0.70381    0.70733    0.97294   1.00
H1       0.68695    0.74953    1.02750   1.00
C5       0.69557    0.70054    0.89410   1.00
H1       0.68729    0.74889    1.09933   1.00
H1       0.79612    0.79200    0.90056   1.00
C5       0.82357    0.75151    1.10535   1.00
H1       0.81269    0.75044    1.02747   1.00
H1       0.79634    0.79238    0.97230   1.00
H2       0.83876    0.77931    1.09837   1.00
H2       0.81910    0.75086    1.13747   1.00
N1       0.84767    0.71818    1.09395   1.00
C6       0.86206    0.71104    1.05810   1.00
C6       0.85984    0.68922    1.11757   1.00
C6       0.88354    0.67701    1.05873   1.00
C6       0.88212    0.66313    1.09656   1.00
H3       0.85735    0.72940    1.03281   1.00
H3       0.85285    0.68704    1.14831   1.00
H3       0.89861    0.66380    1.03436   1.00
H3       0.89581    0.63694    1.10758   1.00
H2       0.69965    0.70526    0.86228   1.00
H2       0.70125    0.66917    0.90001   1.00
N1       0.65550    0.70971    0.90523   1.00
C6       0.62517    0.72373    0.88078   1.00
C6       0.63850    0.70625    0.94285   1.00
C6       0.59175    0.72848    0.90277   1.00
C6       0.59994    0.71776    0.94091   1.00
H3       0.62808    0.72976    0.84992   1.00
H3       0.65373    0.69652    0.96876   1.00
H3       0.56396    0.73886    0.89205   1.00
H3       0.57965    0.71839    0.96505   1.00
C4       0.74964    0.97915    0.75013   1.00
C4       0.75036    1.02085    0.74987   1.00
C3       0.72610    0.95751    0.72398   1.00
C3       0.74961    1.04252    0.71474   1.00
C3       0.77321    0.95738    0.77615   1.00
C3       0.75097    1.04259    0.78498   1.00
C2       0.74994    0.89482    0.74985   1.00
C2       0.74994    1.10518    0.74985   1.00
C3a      0.72613    0.91599    0.72373   1.00
C3       0.74942    1.08382    0.71481   1.00
C3       0.77332    0.91611    0.77595   1.00
C3a      0.75079    1.08403    0.78518   1.00
H1       0.70733    0.97294    0.70381   1.00
H1       0.74953    1.02750    0.68695   1.00
C5       0.70054    0.89410    0.69557   1.00
H1       0.74889    1.09933    0.68729   1.00
H1       0.79200    0.90056    0.79612   1.00
C5       0.75151    1.10535    0.82357   1.00
H1       0.75044    1.02747    0.81269   1.00
H1       0.79238    0.97230    0.79634   1.00
H2       0.77931    1.09837    0.83876   1.00
H2       0.75086    1.13747    0.81910   1.00
N1       0.71818    1.09395    0.84767   1.00
C6       0.71104    1.05810    0.86206   1.00
C6       0.68922    1.11757    0.85984   1.00
C6       0.67701    1.05873    0.88354   1.00
C6       0.66313    1.09656    0.88212   1.00
H3       0.72940    1.03281    0.85735   1.00
H3       0.68704    1.14831    0.85285   1.00
H3       0.66380    1.03436    0.89861   1.00
H3       0.63694    1.10758    0.89581   1.00
H2       0.70526    0.86228    0.69965   1.00
H2       0.66917    0.90001    0.70125   1.00
N1       0.70971    0.90523    0.65550   1.00
C6       0.72373    0.88078    0.62517   1.00
C6       0.70625    0.94285    0.63850   1.00
C6       0.72848    0.90277    0.59175   1.00
C6       0.71776    0.94091    0.59994   1.00
H3       0.72976    0.84992    0.62808   1.00
H3       0.69652    0.96876    0.65373   1.00
H3       0.73886    0.89205    0.56396   1.00
H3       0.71839    0.96505    0.57965   1.00
C4       0.52085    0.75013    0.75036   1.00
C4       0.47915    0.74987    0.74964   1.00
C3       0.54249    0.72398    0.77390   1.00
C3       0.45748    0.71474    0.75039   1.00
C3       0.54262    0.77615    0.72679   1.00
C3       0.45741    0.78498    0.74903   1.00
C2       0.60518    0.74985    0.75006   1.00
C2       0.39482    0.74985    0.75006   1.00
C3a      0.58401    0.72373    0.77387   1.00
C3       0.41618    0.71481    0.75058   1.00
C3       0.58389    0.77595    0.72668   1.00
C3a      0.41597    0.78518    0.74921   1.00
H1       0.52706    0.70381    0.79267   1.00
H1       0.47250    0.68695    0.75047   1.00
C5       0.60590    0.69557    0.79946   1.00
H1       0.40067    0.68729    0.75111   1.00
H1       0.59944    0.79612    0.70800   1.00
C5       0.39465    0.82357    0.74849   1.00
H1       0.47253    0.81269    0.74956   1.00
H1       0.52770    0.79634    0.70762   1.00
H2       0.40163    0.83876    0.72069   1.00
H2       0.36253    0.81910    0.74914   1.00
N1       0.40605    0.84767    0.78182   1.00
C6       0.44190    0.86206    0.78896   1.00
C6       0.38243    0.85984    0.81078   1.00
C6       0.44127    0.88354    0.82299   1.00
C6       0.40344    0.88212    0.83687   1.00
H3       0.46719    0.85735    0.77060   1.00
H3       0.35169    0.85285    0.81296   1.00
H3       0.46564    0.89861    0.83620   1.00
H3       0.39242    0.89581    0.86306   1.00
H2       0.63772    0.69965    0.79474   1.00
H2       0.59999    0.70125    0.83083   1.00
N1       0.59477    0.65550    0.79029   1.00
C6       0.61922    0.62517    0.77627   1.00
C6       0.55715    0.63850    0.79375   1.00
C6       0.59723    0.59175    0.77152   1.00
C6       0.55909    0.59994    0.78224   1.00
H3       0.65008    0.62808    0.77024   1.00
H3       0.53124    0.65373    0.80348   1.00
H3       0.60795    0.56396    0.76114   1.00
H3       0.53495    0.57965    0.78161   1.00
C4       0.97915    0.75013    0.74964   1.00
C4       1.02085    0.74987    0.75036   1.00
C3       0.95751    0.72398    0.72610   1.00
C3       1.04252    0.71474    0.74961   1.00
C3       0.95738    0.77615    0.77321   1.00
C3       1.04259    0.78498    0.75097   1.00
C2       0.89482    0.74985    0.74994   1.00
C2       1.10518    0.74985    0.74994   1.00
C3a      0.91599    0.72373    0.72613   1.00
C3       1.08382    0.71481    0.74942   1.00
C3       0.91611    0.77595    0.77332   1.00
C3a      1.08403    0.78518    0.75079   1.00
H1       0.97294    0.70381    0.70733   1.00
H1       1.02750    0.68695    0.74953   1.00
C5       0.89410    0.69557    0.70054   1.00
H1       1.09933    0.68729    0.74889   1.00
H1       0.90056    0.79612    0.79200   1.00
C5       1.10535    0.82357    0.75151   1.00
H1       1.02747    0.81269    0.75044   1.00
H1       0.97230    0.79634    0.79238   1.00
H2       1.09837    0.83876    0.77931   1.00
H2       1.13747    0.81910    0.75086   1.00
N1       1.09395    0.84767    0.71818   1.00
C6       1.05810    0.86206    0.71104   1.00
C6       1.11757    0.85984    0.68922   1.00
C6       1.05873    0.88354    0.67701   1.00
C6       1.09656    0.88212    0.66313   1.00
H3       1.03281    0.85735    0.72940   1.00
H3       1.14831    0.85285    0.68704   1.00
H3       1.03436    0.89861    0.66380   1.00
H3       1.10758    0.89581    0.63694   1.00
H2       0.86228    0.69965    0.70526   1.00
H2       0.90001    0.70125    0.66917   1.00
N1       0.90523    0.65550    0.70971   1.00
C6       0.88078    0.62517    0.72373   1.00
C6       0.94285    0.63850    0.70625   1.00
C6       0.90277    0.59175    0.72848   1.00
C6       0.94091    0.59994    0.71776   1.00
H3       0.84992    0.62808    0.72976   1.00
H3       0.96876    0.65373    0.69652   1.00
H3       0.89205    0.56396    0.73886   1.00
H3       0.96505    0.57965    0.71839   1.00
C4       0.75036    0.52085    0.75013   1.00
C4       0.74964    0.47915    0.74987   1.00
C3       0.77390    0.54249    0.72398   1.00
C3       0.75039    0.45748    0.71474   1.00
C3       0.72679    0.54262    0.77615   1.00
C3       0.74903    0.45741    0.78498   1.00
C2       0.75006    0.60518    0.74985   1.00
C2       0.75006    0.39482    0.74985   1.00
C3a      0.77387    0.58401    0.72373   1.00
C3       0.75058    0.41618    0.71481   1.00
C3       0.72668    0.58389    0.77595   1.00
C3a      0.74921    0.41597    0.78518   1.00
H1       0.79267    0.52706    0.70381   1.00
H1       0.75047    0.47250    0.68695   1.00
C5       0.79946    0.60590    0.69557   1.00
H1       0.75111    0.40067    0.68729   1.00
H1       0.70800    0.59944    0.79612   1.00
C5       0.74849    0.39465    0.82357   1.00
H1       0.74956    0.47253    0.81269   1.00
H1       0.70762    0.52770    0.79634   1.00
H2       0.72069    0.40163    0.83876   1.00
H2       0.74914    0.36253    0.81910   1.00
N1       0.78182    0.40605    0.84767   1.00
C6       0.78896    0.44190    0.86206   1.00
C6       0.81078    0.38243    0.85984   1.00
C6       0.82299    0.44127    0.88354   1.00
C6       0.83687    0.40344    0.88212   1.00
H3       0.77060    0.46719    0.85735   1.00
H3       0.81296    0.35169    0.85285   1.00
H3       0.83620    0.46564    0.89861   1.00
H3       0.86306    0.39242    0.89581   1.00
H2       0.79474    0.63772    0.69965   1.00
H2       0.83083    0.59999    0.70125   1.00
N1       0.79029    0.59477    0.65550   1.00
C6       0.77627    0.61922    0.62517   1.00
C6       0.79375    0.55715    0.63850   1.00
C6       0.77152    0.59723    0.59175   1.00
C6       0.78224    0.55909    0.59994   1.00
H3       0.77024    0.65008    0.62808   1.00
H3       0.80348    0.53124    0.65373   1.00
H3       0.76114    0.60795    0.56396   1.00
H3       0.78161    0.53495    0.57965   1.00
C4       0.75013    0.75036    0.52085   1.00
C4       0.74987    0.74964    0.47915   1.00
C3       0.72398    0.77390    0.54249   1.00
C3       0.71474    0.75039    0.45748   1.00
C3       0.77615    0.72679    0.54262   1.00
C3       0.78498    0.74903    0.45741   1.00
C2       0.74985    0.75006    0.60518   1.00
C2       0.74985    0.75006    0.39482   1.00
C3a      0.72373    0.77387    0.58401   1.00
C3       0.71481    0.75058    0.41618   1.00
C3       0.77595    0.72668    0.58389   1.00
C3a      0.78518    0.74921    0.41597   1.00
H1       0.70381    0.79267    0.52706   1.00
H1       0.68695    0.75047    0.47250   1.00
C5       0.69557    0.79946    0.60590   1.00
H1       0.68729    0.75111    0.40067   1.00
H1       0.79612    0.70800    0.59944   1.00
C5       0.82357    0.74849    0.39465   1.00
H1       0.81269    0.74956    0.47253   1.00
H1       0.79634    0.70762    0.52770   1.00
H2       0.83876    0.72069    0.40163   1.00
H2       0.81910    0.74914    0.36253   1.00
N1       0.84767    0.78182    0.40605   1.00
C6       0.86206    0.78896    0.44190   1.00
C6       0.85984    0.81078    0.38243   1.00
C6       0.88354    0.82299    0.44127   1.00
C6       0.88212    0.83687    0.40344   1.00
H3       0.85735    0.77060    0.46719   1.00
H3       0.85285    0.81296    0.35169   1.00
H3       0.89861    0.83620    0.46564   1.00
H3       0.89581    0.86306    0.39242   1.00
H2       0.69965    0.79474    0.63772   1.00
H2       0.70125    0.83083    0.59999   1.00
N1       0.65550    0.79029    0.59477   1.00
C6       0.62517    0.77627    0.61922   1.00
C6       0.63850    0.79375    0.55715   1.00
C6       0.59175    0.77152    0.59723   1.00
C6       0.59994    0.78224    0.55909   1.00
H3       0.62808    0.77024    0.65008   1.00
H3       0.65373    0.80348    0.53124   1.00
H3       0.56396    0.76114    0.60795   1.00
H3       0.57965    0.78161    0.53495   1.00
C4       0.25013    0.24964    0.97915   1.00
C4       0.24987    0.25036    1.02085   1.00
C3       0.22398    0.22610    0.95751   1.00
C3       0.21474    0.24961    1.04252   1.00
C3       0.27615    0.27321    0.95738   1.00
C3       0.28498    0.25097    1.04259   1.00
C2       0.24985    0.24994    0.89482   1.00
C2       0.24985    0.24994    1.10518   1.00
C3a      0.22373    0.22613    0.91599   1.00
C3       0.21481    0.24942    1.08382   1.00
C3       0.27595    0.27332    0.91611   1.00
C3a      0.28518    0.25079    1.08403   1.00
H1       0.20381    0.20733    0.97294   1.00
H1       0.18695    0.24953    1.02750   1.00
C5       0.19557    0.20054    0.89410   1.00
H1       0.18729    0.24889    1.09933   1.00
H1       0.29612    0.29200    0.90056   1.00
C5       0.32357    0.25151    1.10535   1.00
H1       0.31269    0.25044    1.02747   1.00
H1       0.29634    0.29238    0.97230   1.00
H2       0.33876    0.27931    1.09837   1.00
H2       0.31910    0.25086    1.13747   1.00
N1       0.34767    0.21818    1.09395   1.00
C6       0.36206    0.21104    1.05810   1.00
C6       0.35984    0.18922    1.11757   1.00
C6       0.38354    0.17701    1.05873   1.00
C6       0.38212    0.16313    1.09656   1.00
H3       0.35735    0.22940    1.03281   1.00
H3       0.35285    0.18704    1.14831   1.00
H3       0.39861    0.16380    1.03436   1.00
H3       0.39581    0.13694    1.10758   1.00
H2       0.19965    0.20526    0.86228   1.00
H2       0.20125    0.16917    0.90001   1.00
N1       0.15550    0.20971    0.90523   1.00
C6       0.12517    0.22373    0.88078   1.00
C6       0.13850    0.20625    0.94285   1.00
C6       0.09175    0.22848    0.90277   1.00
C6       0.09994    0.21776    0.94091   1.00
H3       0.12808    0.22976    0.84992   1.00
H3       0.15373    0.19652    0.96876   1.00
H3       0.06396    0.23886    0.89205   1.00
H3       0.07965    0.21839    0.96505   1.00
C4       0.24964    0.47915    0.75013   1.00
C4       0.25036    0.52085    0.74987   1.00
C3       0.22610    0.45751    0.72398   1.00
C3       0.24961    0.54252    0.71474   1.00
C3       0.27321    0.45738    0.77615   1.00
C3       0.25097    0.54259    0.78498   1.00
C2       0.24994    0.39482    0.74985   1.00
C2       0.24994    0.60518    0.74985   1.00
C3a      0.22613    0.41599    0.72373   1.00
C3       0.24942    0.58382    0.71481   1.00
C3       0.27332    0.41611    0.77595   1.00
C3a      0.25079    0.58403    0.78518   1.00
H1       0.20733    0.47294    0.70381   1.00
H1       0.24953    0.52750    0.68695   1.00
C5       0.20054    0.39410    0.69557   1.00
H1       0.24889    0.59933    0.68729   1.00
H1       0.29200    0.40056    0.79612   1.00
C5       0.25151    0.60535    0.82357   1.00
H1       0.25044    0.52747    0.81269   1.00
H1       0.29238    0.47230    0.79634   1.00
H2       0.27931    0.59837    0.83876   1.00
H2       0.25086    0.63747    0.81910   1.00
N1       0.21818    0.59395    0.84767   1.00
C6       0.21104    0.55810    0.86206   1.00
C6       0.18922    0.61757    0.85984   1.00
C6       0.17701    0.55873    0.88354   1.00
C6       0.16313    0.59656    0.88212   1.00
H3       0.22940    0.53281    0.85735   1.00
H3       0.18704    0.64831    0.85285   1.00
H3       0.16380    0.53436    0.89861   1.00
H3       0.13694    0.60758    0.89581   1.00
H2       0.20526    0.36228    0.69965   1.00
H2       0.16917    0.40001    0.70125   1.00
N1       0.20971    0.40523    0.65550   1.00
C6       0.22373    0.38078    0.62517   1.00
C6       0.20625    0.44285    0.63850   1.00
C6       0.22848    0.40277    0.59175   1.00
C6       0.21776    0.44091    0.59994   1.00
H3       0.22976    0.34992    0.62808   1.00
H3       0.19652    0.46876    0.65373   1.00
H3       0.23886    0.39205    0.56396   1.00
H3       0.21839    0.46505    0.57965   1.00
C4       0.02085    0.25013    0.75036   1.00
C4       -0.02085   0.24987    0.74964   1.00
C3       0.04249    0.22398    0.77390   1.00
C3       -0.04252   0.21474    0.75039   1.00
C3       0.04262    0.27615    0.72679   1.00
C3       -0.04259   0.28498    0.74903   1.00
C2       0.10518    0.24985    0.75006   1.00
C2       -0.10518   0.24985    0.75006   1.00
C3a      0.08401    0.22373    0.77387   1.00
C3       -0.08382   0.21481    0.75058   1.00
C3       0.08389    0.27595    0.72668   1.00
C3a      -0.08403   0.28518    0.74921   1.00
H1       0.02706    0.20381    0.79267   1.00
H1       -0.02750   0.18695    0.75047   1.00
C5       0.10590    0.19557    0.79946   1.00
H1       -0.09933   0.18729    0.75111   1.00
H1       0.09944    0.29612    0.70800   1.00
C5       -0.10535   0.32357    0.74849   1.00
H1       -0.02747   0.31269    0.74956   1.00
H1       0.02770    0.29634    0.70762   1.00
H2       -0.09837   0.33876    0.72069   1.00
H2       -0.13747   0.31910    0.74914   1.00
N1       -0.09395   0.34767    0.78182   1.00
C6       -0.05810   0.36206    0.78896   1.00
C6       -0.11757   0.35984    0.81078   1.00
C6       -0.05873   0.38354    0.82299   1.00
C6       -0.09656   0.38212    0.83687   1.00
H3       -0.03281   0.35735    0.77060   1.00
H3       -0.14831   0.35285    0.81296   1.00
H3       -0.03436   0.39861    0.83620   1.00
H3       -0.10758   0.39581    0.86306   1.00
H2       0.13772    0.19965    0.79474   1.00
H2       0.09999    0.20125    0.83083   1.00
N1       0.09477    0.15550    0.79029   1.00
C6       0.11922    0.12517    0.77627   1.00
C6       0.05715    0.13850    0.79375   1.00
C6       0.09723    0.09175    0.77152   1.00
C6       0.05909    0.09994    0.78224   1.00
H3       0.15008    0.12808    0.77024   1.00
H3       0.03124    0.15373    0.80348   1.00
H3       0.10795    0.06396    0.76114   1.00
H3       0.03495    0.07965    0.78161   1.00
C4       0.47915    0.25013    0.74964   1.00
C4       0.52085    0.24987    0.75036   1.00
C3       0.45751    0.22398    0.72610   1.00
C3       0.54252    0.21474    0.74961   1.00
C3       0.45738    0.27615    0.77321   1.00
C3       0.54259    0.28498    0.75097   1.00
C2       0.39482    0.24985    0.74994   1.00
C2       0.60518    0.24985    0.74994   1.00
C3a      0.41599    0.22373    0.72613   1.00
C3       0.58382    0.21481    0.74942   1.00
C3       0.41611    0.27595    0.77332   1.00
C3a      0.58403    0.28518    0.75079   1.00
H1       0.47294    0.20381    0.70733   1.00
H1       0.52750    0.18695    0.74953   1.00
C5       0.39410    0.19557    0.70054   1.00
H1       0.59933    0.18729    0.74889   1.00
H1       0.40056    0.29612    0.79200   1.00
C5       0.60535    0.32357    0.75151   1.00
H1       0.52747    0.31269    0.75044   1.00
H1       0.47230    0.29634    0.79238   1.00
H2       0.59837    0.33876    0.77931   1.00
H2       0.63747    0.31910    0.75086   1.00
N1       0.59395    0.34767    0.71818   1.00
C6       0.55810    0.36206    0.71104   1.00
C6       0.61757    0.35984    0.68922   1.00
C6       0.55873    0.38354    0.67701   1.00
C6       0.59656    0.38212    0.66313   1.00
H3       0.53281    0.35735    0.72940   1.00
H3       0.64831    0.35285    0.68704   1.00
H3       0.53436    0.39861    0.66380   1.00
H3       0.60758    0.39581    0.63694   1.00
H2       0.36228    0.19965    0.70526   1.00
H2       0.40001    0.20125    0.66917   1.00
N1       0.40523    0.15550    0.70971   1.00
C6       0.38078    0.12517    0.72373   1.00
C6       0.44285    0.13850    0.70625   1.00
C6       0.40277    0.09175    0.72848   1.00
C6       0.44091    0.09994    0.71776   1.00
H3       0.34992    0.12808    0.72976   1.00
H3       0.46876    0.15373    0.69652   1.00
H3       0.39205    0.06396    0.73886   1.00
H3       0.46505    0.07965    0.71839   1.00
C4       0.25036    0.02085    0.75013   1.00
C4       0.24964    -0.02085   0.74987   1.00
C3       0.27390    0.04249    0.72398   1.00
C3       0.25039    -0.04252   0.71474   1.00
C3       0.22679    0.04262    0.77615   1.00
C3       0.24903    -0.04259   0.78498   1.00
C2       0.25006    0.10518    0.74985   1.00
C2       0.25006    -0.10518   0.74985   1.00
C3a      0.27387    0.08401    0.72373   1.00
C3       0.25058    -0.08382   0.71481   1.00
C3       0.22668    0.08389    0.77595   1.00
C3a      0.24921    -0.08403   0.78518   1.00
H1       0.29267    0.02706    0.70381   1.00
H1       0.25047    -0.02750   0.68695   1.00
C5       0.29946    0.10590    0.69557   1.00
H1       0.25111    -0.09933   0.68729   1.00
H1       0.20800    0.09944    0.79612   1.00
C5       0.24849    -0.10535   0.82357   1.00
H1       0.24956    -0.02747   0.81269   1.00
H1       0.20762    0.02770    0.79634   1.00
H2       0.22069    -0.09837   0.83876   1.00
H2       0.24914    -0.13747   0.81910   1.00
N1       0.28182    -0.09395   0.84767   1.00
C6       0.28896    -0.05810   0.86206   1.00
C6       0.31078    -0.11757   0.85984   1.00
C6       0.32299    -0.05873   0.88354   1.00
C6       0.33687    -0.09656   0.88212   1.00
H3       0.27060    -0.03281   0.85735   1.00
H3       0.31296    -0.14831   0.85285   1.00
H3       0.33620    -0.03436   0.89861   1.00
H3       0.36306    -0.10758   0.89581   1.00
H2       0.29474    0.13772    0.69965   1.00
H2       0.33083    0.09999    0.70125   1.00
N1       0.29029    0.09477    0.65550   1.00
C6       0.27627    0.11922    0.62517   1.00
C6       0.29375    0.05715    0.63850   1.00
C6       0.27152    0.09723    0.59175   1.00
C6       0.28224    0.05909    0.59994   1.00
H3       0.27024    0.15008    0.62808   1.00
H3       0.30348    0.03124    0.65373   1.00
H3       0.26114    0.10795    0.56396   1.00
H3       0.28161    0.03495    0.57965   1.00
C4       0.25013    0.25036    0.52085   1.00
C4       0.24987    0.24964    0.47915   1.00
C3       0.22398    0.27390    0.54249   1.00
C3       0.21474    0.25039    0.45748   1.00
C3       0.27615    0.22679    0.54262   1.00
C3       0.28498    0.24903    0.45741   1.00
C2       0.24985    0.25006    0.60518   1.00
C2       0.24985    0.25006    0.39482   1.00
C3a      0.22373    0.27387    0.58401   1.00
C3       0.21481    0.25058    0.41618   1.00
C3       0.27595    0.22668    0.58389   1.00
C3a      0.28518    0.24921    0.41597   1.00
H1       0.20381    0.29267    0.52706   1.00
H1       0.18695    0.25047    0.47250   1.00
C5       0.19557    0.29946    0.60590   1.00
H1       0.18729    0.25111    0.40067   1.00
H1       0.29612    0.20800    0.59944   1.00
C5       0.32357    0.24849    0.39465   1.00
H1       0.31269    0.24956    0.47253   1.00
H1       0.29634    0.20762    0.52770   1.00
H2       0.33876    0.22069    0.40163   1.00
H2       0.31910    0.24914    0.36253   1.00
N1       0.34767    0.28182    0.40605   1.00
C6       0.36206    0.28896    0.44190   1.00
C6       0.35984    0.31078    0.38243   1.00
C6       0.38354    0.32299    0.44127   1.00
C6       0.38212    0.33687    0.40344   1.00
H3       0.35735    0.27060    0.46719   1.00
H3       0.35285    0.31296    0.35169   1.00
H3       0.39861    0.33620    0.46564   1.00
H3       0.39581    0.36306    0.39242   1.00
H2       0.19965    0.29474    0.63772   1.00
H2       0.20125    0.33083    0.59999   1.00
N1       0.15550    0.29029    0.59477   1.00
C6       0.12517    0.27627    0.61922   1.00
C6       0.13850    0.29375    0.55715   1.00
C6       0.09175    0.27152    0.59723   1.00
C6       0.09994    0.28224    0.55909   1.00
H3       0.12808    0.27024    0.65008   1.00
H3       0.15373    0.30348    0.53124   1.00
H3       0.06396    0.26114    0.60795   1.00
H3       0.07965    0.28161    0.53495   1.00
C4       0.25013    0.74964    0.47915   1.00
C4       0.24987    0.75036    0.52085   1.00
C3       0.22398    0.72610    0.45751   1.00
C3       0.21474    0.74961    0.54252   1.00
C3       0.27615    0.77321    0.45738   1.00
C3       0.28498    0.75097    0.54259   1.00
C2       0.24985    0.74994    0.39482   1.00
C2       0.24985    0.74994    0.60518   1.00
C3a      0.22373    0.72613    0.41599   1.00
C3       0.21481    0.74942    0.58382   1.00
C3       0.27595    0.77332    0.41611   1.00
C3a      0.28518    0.75079    0.58403   1.00
H1       0.20381    0.70733    0.47294   1.00
H1       0.18695    0.74953    0.52750   1.00
C5       0.19557    0.70054    0.39410   1.00
H1       0.18729    0.74889    0.59933   1.00
H1       0.29612    0.79200    0.40056   1.00
C5       0.32357    0.75151    0.60535   1.00
H1       0.31269    0.75044    0.52747   1.00
H1       0.29634    0.79238    0.47230   1.00
H2       0.33876    0.77931    0.59837   1.00
H2       0.31910    0.75086    0.63747   1.00
N1       0.34767    0.71818    0.59395   1.00
C6       0.36206    0.71104    0.55810   1.00
C6       0.35984    0.68922    0.61757   1.00
C6       0.38354    0.67701    0.55873   1.00
C6       0.38212    0.66313    0.59656   1.00
H3       0.35735    0.72940    0.53281   1.00
H3       0.35285    0.68704    0.64831   1.00
H3       0.39861    0.66380    0.53436   1.00
H3       0.39581    0.63694    0.60758   1.00
H2       0.19965    0.70526    0.36228   1.00
H2       0.20125    0.66917    0.40001   1.00
N1       0.15550    0.70971    0.40523   1.00
C6       0.12517    0.72373    0.38078   1.00
C6       0.13850    0.70625    0.44285   1.00
C6       0.09175    0.72848    0.40277   1.00
C6       0.09994    0.71776    0.44091   1.00
H3       0.12808    0.72976    0.34992   1.00
H3       0.15373    0.69652    0.46876   1.00
H3       0.06396    0.73886    0.39205   1.00
H3       0.07965    0.71839    0.46505   1.00
C4       0.24964    0.97915    0.25013   1.00
C4       0.25036    1.02085    0.24987   1.00
C3       0.22610    0.95751    0.22398   1.00
C3       0.24961    1.04252    0.21474   1.00
C3       0.27321    0.95738    0.27615   1.00
C3       0.25097    1.04259    0.28498   1.00
C2       0.24994    0.89482    0.24985   1.00
C2       0.24994    1.10518    0.24985   1.00
C3a      0.22613    0.91599    0.22373   1.00
C3       0.24942    1.08382    0.21481   1.00
C3       0.27332    0.91611    0.27595   1.00
C3a      0.25079    1.08403    0.28518   1.00
H1       0.20733    0.97294    0.20381   1.00
H1       0.24953    1.02750    0.18695   1.00
C5       0.20054    0.89410    0.19557   1.00
H1       0.24889    1.09933    0.18729   1.00
H1       0.29200    0.90056    0.29612   1.00
C5       0.25151    1.10535    0.32357   1.00
H1       0.25044    1.02747    0.31269   1.00
H1       0.29238    0.97230    0.29634   1.00
H2       0.27931    1.09837    0.33876   1.00
H2       0.25086    1.13747    0.31910   1.00
N1       0.21818    1.09395    0.34767   1.00
C6       0.21104    1.05810    0.36206   1.00
C6       0.18922    1.11757    0.35984   1.00
C6       0.17701    1.05873    0.38354   1.00
C6       0.16313    1.09656    0.38212   1.00
H3       0.22940    1.03281    0.35735   1.00
H3       0.18704    1.14831    0.35285   1.00
H3       0.16380    1.03436    0.39861   1.00
H3       0.13694    1.10758    0.39581   1.00
H2       0.20526    0.86228    0.19965   1.00
H2       0.16917    0.90001    0.20125   1.00
N1       0.20971    0.90523    0.15550   1.00
C6       0.22373    0.88078    0.12517   1.00
C6       0.20625    0.94285    0.13850   1.00
C6       0.22848    0.90277    0.09175   1.00
C6       0.21776    0.94091    0.09994   1.00
H3       0.22976    0.84992    0.12808   1.00
H3       0.19652    0.96876    0.15373   1.00
H3       0.23886    0.89205    0.06396   1.00
H3       0.21839    0.96505    0.07965   1.00
C4       0.02085    0.75013    0.25036   1.00
C4       -0.02085   0.74987    0.24964   1.00
C3       0.04249    0.72398    0.27390   1.00
C3       -0.04252   0.71474    0.25039   1.00
C3       0.04262    0.77615    0.22679   1.00
C3       -0.04259   0.78498    0.24903   1.00
C2       0.10518    0.74985    0.25006   1.00
C2       -0.10518   0.74985    0.25006   1.00
C3a      0.08401    0.72373    0.27387   1.00
C3       -0.08382   0.71481    0.25058   1.00
C3       0.08389    0.77595    0.22668   1.00
C3a      -0.08403   0.78518    0.24921   1.00
H1       0.02706    0.70381    0.29267   1.00
H1       -0.02750   0.68695    0.25047   1.00
C5       0.10590    0.69557    0.29946   1.00
H1       -0.09933   0.68729    0.25111   1.00
H1       0.09944    0.79612    0.20800   1.00
C5       -0.10535   0.82357    0.24849   1.00
H1       -0.02747   0.81269    0.24956   1.00
H1       0.02770    0.79634    0.20762   1.00
H2       -0.09837   0.83876    0.22069   1.00
H2       -0.13747   0.81910    0.24914   1.00
N1       -0.09395   0.84767    0.28182   1.00
C6       -0.05810   0.86206    0.28896   1.00
C6       -0.11757   0.85984    0.31078   1.00
C6       -0.05873   0.88354    0.32299   1.00
C6       -0.09656   0.88212    0.33687   1.00
H3       -0.03281   0.85735    0.27060   1.00
H3       -0.14831   0.85285    0.31296   1.00
H3       -0.03436   0.89861    0.33620   1.00
H3       -0.10758   0.89581    0.36306   1.00
H2       0.13772    0.69965    0.29474   1.00
H2       0.09999    0.70125    0.33083   1.00
N1       0.09477    0.65550    0.29029   1.00
C6       0.11922    0.62517    0.27627   1.00
C6       0.05715    0.63850    0.29375   1.00
C6       0.09723    0.59175    0.27152   1.00
C6       0.05909    0.59994    0.28224   1.00
H3       0.15008    0.62808    0.27024   1.00
H3       0.03124    0.65373    0.30348   1.00
H3       0.10795    0.56396    0.26114   1.00
H3       0.03495    0.57965    0.28161   1.00
C4       0.47915    0.75013    0.24964   1.00
C4       0.52085    0.74987    0.25036   1.00
C3       0.45751    0.72398    0.22610   1.00
C3       0.54252    0.71474    0.24961   1.00
C3       0.45738    0.77615    0.27321   1.00
C3       0.54259    0.78498    0.25097   1.00
C2       0.39482    0.74985    0.24994   1.00
C2       0.60518    0.74985    0.24994   1.00
C3a      0.41599    0.72373    0.22613   1.00
C3       0.58382    0.71481    0.24942   1.00
C3       0.41611    0.77595    0.27332   1.00
C3a      0.58403    0.78518    0.25079   1.00
H1       0.47294    0.70381    0.20733   1.00
H1       0.52750    0.68695    0.24953   1.00
C5       0.39410    0.69557    0.20054   1.00
H1       0.59933    0.68729    0.24889   1.00
H1       0.40056    0.79612    0.29200   1.00
C5       0.60535    0.82357    0.25151   1.00
H1       0.52747    0.81269    0.25044   1.00
H1       0.47230    0.79634    0.29238   1.00
H2       0.59837    0.83876    0.27931   1.00
H2       0.63747    0.81910    0.25086   1.00
N1       0.59395    0.84767    0.21818   1.00
C6       0.55810    0.86206    0.21104   1.00
C6       0.61757    0.85984    0.18922   1.00
C6       0.55873    0.88354    0.17701   1.00
C6       0.59656    0.88212    0.16313   1.00
H3       0.53281    0.85735    0.22940   1.00
H3       0.64831    0.85285    0.18704   1.00
H3       0.53436    0.89861    0.16380   1.00
H3       0.60758    0.89581    0.13694   1.00
H2       0.36228    0.69965    0.20526   1.00
H2       0.40001    0.70125    0.16917   1.00
N1       0.40523    0.65550    0.20971   1.00
C6       0.38078    0.62517    0.22373   1.00
C6       0.44285    0.63850    0.20625   1.00
C6       0.40277    0.59175    0.22848   1.00
C6       0.44091    0.59994    0.21776   1.00
H3       0.34992    0.62808    0.22976   1.00
H3       0.46876    0.65373    0.19652   1.00
H3       0.39205    0.56396    0.23886   1.00
H3       0.46505    0.57965    0.21839   1.00
C4       0.25036    0.52085    0.25013   1.00
C4       0.24964    0.47915    0.24987   1.00
C3       0.27390    0.54249    0.22398   1.00
C3       0.25039    0.45748    0.21474   1.00
C3       0.22679    0.54262    0.27615   1.00
C3       0.24903    0.45741    0.28498   1.00
C2       0.25006    0.60518    0.24985   1.00
C2       0.25006    0.39482    0.24985   1.00
C3a      0.27387    0.58401    0.22373   1.00
C3       0.25058    0.41618    0.21481   1.00
C3       0.22668    0.58389    0.27595   1.00
C3a      0.24921    0.41597    0.28518   1.00
H1       0.29267    0.52706    0.20381   1.00
H1       0.25047    0.47250    0.18695   1.00
C5       0.29946    0.60590    0.19557   1.00
H1       0.25111    0.40067    0.18729   1.00
H1       0.20800    0.59944    0.29612   1.00
C5       0.24849    0.39465    0.32357   1.00
H1       0.24956    0.47253    0.31269   1.00
H1       0.20762    0.52770    0.29634   1.00
H2       0.22069    0.40163    0.33876   1.00
H2       0.24914    0.36253    0.31910   1.00
N1       0.28182    0.40605    0.34767   1.00
C6       0.28896    0.44190    0.36206   1.00
C6       0.31078    0.38243    0.35984   1.00
C6       0.32299    0.44127    0.38354   1.00
C6       0.33687    0.40344    0.38212   1.00
H3       0.27060    0.46719    0.35735   1.00
H3       0.31296    0.35169    0.35285   1.00
H3       0.33620    0.46564    0.39861   1.00
H3       0.36306    0.39242    0.39581   1.00
H2       0.29474    0.63772    0.19965   1.00
H2       0.33083    0.59999    0.20125   1.00
N1       0.29029    0.59477    0.15550   1.00
C6       0.27627    0.61922    0.12517   1.00
C6       0.29375    0.55715    0.13850   1.00
C6       0.27152    0.59723    0.09175   1.00
C6       0.28224    0.55909    0.09994   1.00
H3       0.27024    0.65008    0.12808   1.00
H3       0.30348    0.53124    0.15373   1.00
H3       0.26114    0.60795    0.06396   1.00
H3       0.28161    0.53495    0.07965   1.00
C4       0.25013    0.75036    0.02085   1.00
C4       0.24987    0.74964    -0.02085   1.00
C3       0.22398    0.77390    0.04249   1.00
C3       0.21474    0.75039    -0.04252   1.00
C3       0.27615    0.72679    0.04262   1.00
C3       0.28498    0.74903    -0.04259   1.00
C2       0.24985    0.75006    0.10518   1.00
C2       0.24985    0.75006    -0.10518   1.00
C3a      0.22373    0.77387    0.08401   1.00
C3       0.21481    0.75058    -0.08382   1.00
C3       0.27595    0.72668    0.08389   1.00
C3a      0.28518    0.74921    -0.08403   1.00
H1       0.20381    0.79267    0.02706   1.00
H1       0.18695    0.75047    -0.02750   1.00
C5       0.19557    0.79946    0.10590   1.00
H1       0.18729    0.75111    -0.09933   1.00
H1       0.29612    0.70800    0.09944   1.00
C5       0.32357    0.74849    -0.10535   1.00
H1       0.31269    0.74956    -0.02747   1.00
H1       0.29634    0.70762    0.02770   1.00
H2       0.33876    0.72069    -0.09837   1.00
H2       0.31910    0.74914    -0.13747   1.00
N1       0.34767    0.78182    -0.09395   1.00
C6       0.36206    0.78896    -0.05810   1.00
C6       0.35984    0.81078    -0.11757   1.00
C6       0.38354    0.82299    -0.05873   1.00
C6       0.38212    0.83687    -0.09656   1.00
H3       0.35735    0.77060    -0.03281   1.00
H3       0.35285    0.81296    -0.14831   1.00
H3       0.39861    0.83620    -0.03436   1.00
H3       0.39581    0.86306    -0.10758   1.00
H2       0.19965    0.79474    0.13772   1.00
H2       0.20125    0.83083    0.09999   1.00
N1       0.15550    0.79029    0.09477   1.00
C6       0.12517    0.77627    0.11922   1.00
C6       0.13850    0.79375    0.05715   1.00
C6       0.09175    0.77152    0.09723   1.00
C6       0.09994    0.78224    0.05909   1.00
H3       0.12808    0.77024    0.15008   1.00
H3       0.15373    0.80348    0.03124   1.00
H3       0.06396    0.76114    0.10795   1.00
H3       0.07965    0.78161    0.03495   1.00
C4       0.75013    0.24964    0.47915   1.00
C4       0.74987    0.25036    0.52085   1.00
C3       0.72398    0.22610    0.45751   1.00
C3       0.71474    0.24961    0.54252   1.00
C3       0.77615    0.27321    0.45738   1.00
C3       0.78498    0.25097    0.54259   1.00
C2       0.74985    0.24994    0.39482   1.00
C2       0.74985    0.24994    0.60518   1.00
C3a      0.72373    0.22613    0.41599   1.00
C3       0.71481    0.24942    0.58382   1.00
C3       0.77595    0.27332    0.41611   1.00
C3a      0.78518    0.25079    0.58403   1.00
H1       0.70381    0.20733    0.47294   1.00
H1       0.68695    0.24953    0.52750   1.00
C5       0.69557    0.20054    0.39410   1.00
H1       0.68729    0.24889    0.59933   1.00
H1       0.79612    0.29200    0.40056   1.00
C5       0.82357    0.25151    0.60535   1.00
H1       0.81269    0.25044    0.52747   1.00
H1       0.79634    0.29238    0.47230   1.00
H2       0.83876    0.27931    0.59837   1.00
H2       0.81910    0.25086    0.63747   1.00
N1       0.84767    0.21818    0.59395   1.00
C6       0.86206    0.21104    0.55810   1.00
C6       0.85984    0.18922    0.61757   1.00
C6       0.88354    0.17701    0.55873   1.00
C6       0.88212    0.16313    0.59656   1.00
H3       0.85735    0.22940    0.53281   1.00
H3       0.85285    0.18704    0.64831   1.00
H3       0.89861    0.16380    0.53436   1.00
H3       0.89581    0.13694    0.60758   1.00
H2       0.69965    0.20526    0.36228   1.00
H2       0.70125    0.16917    0.40001   1.00
N1       0.65550    0.20971    0.40523   1.00
C6       0.62517    0.22373    0.38078   1.00
C6       0.63850    0.20625    0.44285   1.00
C6       0.59175    0.22848    0.40277   1.00
C6       0.59994    0.21776    0.44091   1.00
H3       0.62808    0.22976    0.34992   1.00
H3       0.65373    0.19652    0.46876   1.00
H3       0.56396    0.23886    0.39205   1.00
H3       0.57965    0.21839    0.46505   1.00
C4       0.74964    0.47915    0.25013   1.00
C4       0.75036    0.52085    0.24987   1.00
C3       0.72610    0.45751    0.22398   1.00
C3       0.74961    0.54252    0.21474   1.00
C3       0.77321    0.45738    0.27615   1.00
C3       0.75097    0.54259    0.28498   1.00
C2       0.74994    0.39482    0.24985   1.00
C2       0.74994    0.60518    0.24985   1.00
C3a      0.72613    0.41599    0.22373   1.00
C3       0.74942    0.58382    0.21481   1.00
C3       0.77332    0.41611    0.27595   1.00
C3a      0.75079    0.58403    0.28518   1.00
H1       0.70733    0.47294    0.20381   1.00
H1       0.74953    0.52750    0.18695   1.00
C5       0.70054    0.39410    0.19557   1.00
H1       0.74889    0.59933    0.18729   1.00
H1       0.79200    0.40056    0.29612   1.00
C5       0.75151    0.60535    0.32357   1.00
H1       0.75044    0.52747    0.31269   1.00
H1       0.79238    0.47230    0.29634   1.00
H2       0.77931    0.59837    0.33876   1.00
H2       0.75086    0.63747    0.31910   1.00
N1       0.71818    0.59395    0.34767   1.00
C6       0.71104    0.55810    0.36206   1.00
C6       0.68922    0.61757    0.35984   1.00
C6       0.67701    0.55873    0.38354   1.00
C6       0.66313    0.59656    0.38212   1.00
H3       0.72940    0.53281    0.35735   1.00
H3       0.68704    0.64831    0.35285   1.00
H3       0.66380    0.53436    0.39861   1.00
H3       0.63694    0.60758    0.39581   1.00
H2       0.70526    0.36228    0.19965   1.00
H2       0.66917    0.40001    0.20125   1.00
N1       0.70971    0.40523    0.15550   1.00
C6       0.72373    0.38078    0.12517   1.00
C6       0.70625    0.44285    0.13850   1.00
C6       0.72848    0.40277    0.09175   1.00
C6       0.71776    0.44091    0.09994   1.00
H3       0.72976    0.34992    0.12808   1.00
H3       0.69652    0.46876    0.15373   1.00
H3       0.73886    0.39205    0.06396   1.00
H3       0.71839    0.46505    0.07965   1.00
C4       0.52085    0.25013    0.25036   1.00
C4       0.47915    0.24987    0.24964   1.00
C3       0.54249    0.22398    0.27390   1.00
C3       0.45748    0.21474    0.25039   1.00
C3       0.54262    0.27615    0.22679   1.00
C3       0.45741    0.28498    0.24903   1.00
C2       0.60518    0.24985    0.25006   1.00
C2       0.39482    0.24985    0.25006   1.00
C3a      0.58401    0.22373    0.27387   1.00
C3       0.41618    0.21481    0.25058   1.00
C3       0.58389    0.27595    0.22668   1.00
C3a      0.41597    0.28518    0.24921   1.00
H1       0.52706    0.20381    0.29267   1.00
H1       0.47250    0.18695    0.25047   1.00
C5       0.60590    0.19557    0.29946   1.00
H1       0.40067    0.18729    0.25111   1.00
H1       0.59944    0.29612    0.20800   1.00
C5       0.39465    0.32357    0.24849   1.00
H1       0.47253    0.31269    0.24956   1.00
H1       0.52770    0.29634    0.20762   1.00
H2       0.40163    0.33876    0.22069   1.00
H2       0.36253    0.31910    0.24914   1.00
N1       0.40605    0.34767    0.28182   1.00
C6       0.44190    0.36206    0.28896   1.00
C6       0.38243    0.35984    0.31078   1.00
C6       0.44127    0.38354    0.32299   1.00
C6       0.40344    0.38212    0.33687   1.00
H3       0.46719    0.35735    0.27060   1.00
H3       0.35169    0.35285    0.31296   1.00
H3       0.46564    0.39861    0.33620   1.00
H3       0.39242    0.39581    0.36306   1.00
H2       0.63772    0.19965    0.29474   1.00
H2       0.59999    0.20125    0.33083   1.00
N1       0.59477    0.15550    0.29029   1.00
C6       0.61922    0.12517    0.27627   1.00
C6       0.55715    0.13850    0.29375   1.00
C6       0.59723    0.09175    0.27152   1.00
C6       0.55909    0.09994    0.28224   1.00
H3       0.65008    0.12808    0.27024   1.00
H3       0.53124    0.15373    0.30348   1.00
H3       0.60795    0.06396    0.26114   1.00
H3       0.53495    0.07965    0.28161   1.00
C4       0.97915    0.25013    0.24964   1.00
C4       1.02085    0.24987    0.25036   1.00
C3       0.95751    0.22398    0.22610   1.00
C3       1.04252    0.21474    0.24961   1.00
C3       0.95738    0.27615    0.27321   1.00
C3       1.04259    0.28498    0.25097   1.00
C2       0.89482    0.24985    0.24994   1.00
C2       1.10518    0.24985    0.24994   1.00
C3a      0.91599    0.22373    0.22613   1.00
C3       1.08382    0.21481    0.24942   1.00
C3       0.91611    0.27595    0.27332   1.00
C3a      1.08403    0.28518    0.25079   1.00
H1       0.97294    0.20381    0.20733   1.00
H1       1.02750    0.18695    0.24953   1.00
C5       0.89410    0.19557    0.20054   1.00
H1       1.09933    0.18729    0.24889   1.00
H1       0.90056    0.29612    0.29200   1.00
C5       1.10535    0.32357    0.25151   1.00
H1       1.02747    0.31269    0.25044   1.00
H1       0.97230    0.29634    0.29238   1.00
H2       1.09837    0.33876    0.27931   1.00
H2       1.13747    0.31910    0.25086   1.00
N1       1.09395    0.34767    0.21818   1.00
C6       1.05810    0.36206    0.21104   1.00
C6       1.11757    0.35984    0.18922   1.00
C6       1.05873    0.38354    0.17701   1.00
C6       1.09656    0.38212    0.16313   1.00
H3       1.03281    0.35735    0.22940   1.00
H3       1.14831    0.35285    0.18704   1.00
H3       1.03436    0.39861    0.16380   1.00
H3       1.10758    0.39581    0.13694   1.00
H2       0.86228    0.19965    0.20526   1.00
H2       0.90001    0.20125    0.16917   1.00
N1       0.90523    0.15550    0.20971   1.00
C6       0.88078    0.12517    0.22373   1.00
C6       0.94285    0.13850    0.20625   1.00
C6       0.90277    0.09175    0.22848   1.00
C6       0.94091    0.09994    0.21776   1.00
H3       0.84992    0.12808    0.22976   1.00
H3       0.96876    0.15373    0.19652   1.00
H3       0.89205    0.06396    0.23886   1.00
H3       0.96505    0.07965    0.21839   1.00
C4       0.75036    0.02085    0.25013   1.00
C4       0.74964    -0.02085   0.24987   1.00
C3       0.77390    0.04249    0.22398   1.00
C3       0.75039    -0.04252   0.21474   1.00
C3       0.72679    0.04262    0.27615   1.00
C3       0.74903    -0.04259   0.28498   1.00
C2       0.75006    0.10518    0.24985   1.00
C2       0.75006    -0.10518   0.24985   1.00
C3a      0.77387    0.08401    0.22373   1.00
C3       0.75058    -0.08382   0.21481   1.00
C3       0.72668    0.08389    0.27595   1.00
C3a      0.74921    -0.08403   0.28518   1.00
H1       0.79267    0.02706    0.20381   1.00
H1       0.75047    -0.02750   0.18695   1.00
C5       0.79946    0.10590    0.19557   1.00
H1       0.75111    -0.09933   0.18729   1.00
H1       0.70800    0.09944    0.29612   1.00
C5       0.74849    -0.10535   0.32357   1.00
H1       0.74956    -0.02747   0.31269   1.00
H1       0.70762    0.02770    0.29634   1.00
H2       0.72069    -0.09837   0.33876   1.00
H2       0.74914    -0.13747   0.31910   1.00
N1       0.78182    -0.09395   0.34767   1.00
C6       0.78896    -0.05810   0.36206   1.00
C6       0.81078    -0.11757   0.35984   1.00
C6       0.82299    -0.05873   0.38354   1.00
C6       0.83687    -0.09656   0.38212   1.00
H3       0.77060    -0.03281   0.35735   1.00
H3       0.81296    -0.14831   0.35285   1.00
H3       0.83620    -0.03436   0.39861   1.00
H3       0.86306    -0.10758   0.39581   1.00
H2       0.79474    0.13772    0.19965   1.00
H2       0.83083    0.09999    0.20125   1.00
N1       0.79029    0.09477    0.15550   1.00
C6       0.77627    0.11922    0.12517   1.00
C6       0.79375    0.05715    0.13850   1.00
C6       0.77152    0.09723    0.09175   1.00
C6       0.78224    0.05909    0.09994   1.00
H3       0.77024    0.15008    0.12808   1.00
H3       0.80348    0.03124    0.15373   1.00
H3       0.76114    0.10795    0.06396   1.00
H3       0.78161    0.03495    0.07965   1.00
C4       0.75013    0.25036    0.02085   1.00
C4       0.74987    0.24964    -0.02085   1.00
C3       0.72398    0.27390    0.04249   1.00
C3       0.71474    0.25039    -0.04252   1.00
C3       0.77615    0.22679    0.04262   1.00
C3       0.78498    0.24903    -0.04259   1.00
C2       0.74985    0.25006    0.10518   1.00
C2       0.74985    0.25006    -0.10518   1.00
C3a      0.72373    0.27387    0.08401   1.00
C3       0.71481    0.25058    -0.08382   1.00
C3       0.77595    0.22668    0.08389   1.00
C3a      0.78518    0.24921    -0.08403   1.00
H1       0.70381    0.29267    0.02706   1.00
H1       0.68695    0.25047    -0.02750   1.00
C5       0.69557    0.29946    0.10590   1.00
H1       0.68729    0.25111    -0.09933   1.00
H1       0.79612    0.20800    0.09944   1.00
C5       0.82357    0.24849    -0.10535   1.00
H1       0.81269    0.24956    -0.02747   1.00
H1       0.79634    0.20762    0.02770   1.00
H2       0.83876    0.22069    -0.09837   1.00
H2       0.81910    0.24914    -0.13747   1.00
N1       0.84767    0.28182    -0.09395   1.00
C6       0.86206    0.28896    -0.05810   1.00
C6       0.85984    0.31078    -0.11757   1.00
C6       0.88354    0.32299    -0.05873   1.00
C6       0.88212    0.33687    -0.09656   1.00
H3       0.85735    0.27060    -0.03281   1.00
H3       0.85285    0.31296    -0.14831   1.00
H3       0.89861    0.33620    -0.03436   1.00
H3       0.89581    0.36306    -0.10758   1.00
H2       0.69965    0.29474    0.13772   1.00
H2       0.70125    0.33083    0.09999   1.00
N1       0.65550    0.29029    0.09477   1.00
C6       0.62517    0.27627    0.11922   1.00
C6       0.63850    0.29375    0.05715   1.00
C6       0.59175    0.27152    0.09723   1.00
C6       0.59994    0.28224    0.05909   1.00
H3       0.62808    0.27024    0.15008   1.00
H3       0.65373    0.30348    0.03124   1.00
H3       0.56396    0.26114    0.10795   1.00
H3       0.57965    0.28161    0.03495   1.00
C4       0.91513    0.91464    1.14415   1.00
C4       0.91487    0.91536    1.18585   1.00
C3       0.88898    0.89110    1.12251   1.00
C3       0.87974    0.91461    1.20752   1.00
C3       0.94115    0.93821    1.12238   1.00
C3       0.94998    0.91597    1.20759   1.00
C2       0.91485    0.91494    1.05982   1.00
C2       0.91485    0.91494    1.27018   1.00
C3a      0.88873    0.89113    1.08099   1.00
C3       0.87981    0.91442    1.24882   1.00
C3       0.94095    0.93832    1.08111   1.00
C3a      0.95018    0.91579    1.24903   1.00
H1       0.86881    0.87233    1.13794   1.00
H1       0.85195    0.91453    1.19250   1.00
C5       0.86057    0.86554    1.05910   1.00
H1       0.85229    0.91389    1.26433   1.00
H1       0.96112    0.95700    1.06556   1.00
C5       0.98857    0.91651    1.27035   1.00
H1       0.97769    0.91544    1.19247   1.00
H1       0.96134    0.95738    1.13730   1.00
H2       1.00376    0.94431    1.26337   1.00
H2       0.98410    0.91586    1.30247   1.00
N1       1.01267    0.88318    1.25895   1.00
C6       1.02706    0.87604    1.22310   1.00
C6       1.02484    0.85422    1.28257   1.00
C6       1.04854    0.84201    1.22373   1.00
C6       1.04712    0.82813    1.26156   1.00
H3       1.02235    0.89440    1.19781   1.00
H3       1.01785    0.85204    1.31331   1.00
H3       1.06361    0.82880    1.19936   1.00
H3       1.06081    0.80194    1.27258   1.00
H2       0.86465    0.87026    1.02728   1.00
H2       0.86625    0.83417    1.06501   1.00
N1       0.82050    0.87471    1.07023   1.00
C6       0.79017    0.88873    1.04578   1.00
C6       0.80350    0.87125    1.10785   1.00
C6       0.75675    0.89348    1.06777   1.00
C6       0.76494    0.88276    1.10591   1.00
H3       0.79308    0.89476    1.01492   1.00
H3       0.81873    0.86152    1.13376   1.00
H3       0.72896    0.90386    1.05705   1.00
H3       0.74465    0.88339    1.13005   1.00
C4       0.91464    1.14415    0.91513   1.00
C4       0.91536    1.18585    0.91487   1.00
C3       0.89110    1.12251    0.88898   1.00
C3       0.91461    1.20752    0.87974   1.00
C3       0.93821    1.12238    0.94115   1.00
C3       0.91597    1.20759    0.94998   1.00
C2       0.91494    1.05982    0.91485   1.00
C2       0.91494    1.27018    0.91485   1.00
C3a      0.89113    1.08099    0.88873   1.00
C3       0.91442    1.24882    0.87981   1.00
C3       0.93832    1.08111    0.94095   1.00
C3a      0.91579    1.24903    0.95018   1.00
H1       0.87233    1.13794    0.86881   1.00
H1       0.91453    1.19250    0.85195   1.00
C5       0.86554    1.05910    0.86057   1.00
H1       0.91389    1.26433    0.85229   1.00
H1       0.95700    1.06556    0.96112   1.00
C5       0.91651    1.27035    0.98857   1.00
H1       0.91544    1.19247    0.97769   1.00
H1       0.95738    1.13730    0.96134   1.00
H2       0.94431    1.26337    1.00376   1.00
H2       0.91586    1.30247    0.98410   1.00
N1       0.88318    1.25895    1.01267   1.00
C6       0.87604    1.22310    1.02706   1.00
C6       0.85422    1.28257    1.02484   1.00
C6       0.84201    1.22373    1.04854   1.00
C6       0.82813    1.26156    1.04712   1.00
H3       0.89440    1.19781    1.02235   1.00
H3       0.85204    1.31331    1.01785   1.00
H3       0.82880    1.19936    1.06361   1.00
H3       0.80194    1.27258    1.06081   1.00
H2       0.87026    1.02728    0.86465   1.00
H2       0.83417    1.06501    0.86625   1.00
N1       0.87471    1.07023    0.82050   1.00
C6       0.88873    1.04578    0.79017   1.00
C6       0.87125    1.10785    0.80350   1.00
C6       0.89348    1.06777    0.75675   1.00
C6       0.88276    1.10591    0.76494   1.00
H3       0.89476    1.01492    0.79308   1.00
H3       0.86152    1.13376    0.81873   1.00
H3       0.90386    1.05705    0.72896   1.00
H3       0.88339    1.13005    0.74465   1.00
C4       0.68585    0.91513    0.91536   1.00
C4       0.64415    0.91487    0.91464   1.00
C3       0.70749    0.88898    0.93890   1.00
C3       0.62248    0.87974    0.91539   1.00
C3       0.70762    0.94115    0.89179   1.00
C3       0.62241    0.94998    0.91403   1.00
C2       0.77018    0.91485    0.91506   1.00
C2       0.55982    0.91485    0.91506   1.00
C3a      0.74901    0.88873    0.93887   1.00
C3       0.58118    0.87981    0.91558   1.00
C3       0.74889    0.94095    0.89168   1.00
C3a      0.58097    0.95018    0.91421   1.00
H1       0.69206    0.86881    0.95767   1.00
H1       0.63750    0.85195    0.91547   1.00
C5       0.77090    0.86057    0.96446   1.00
H1       0.56567    0.85229    0.91611   1.00
H1       0.76444    0.96112    0.87300   1.00
C5       0.55965    0.98857    0.91349   1.00
H1       0.63753    0.97769    0.91456   1.00
H1       0.69270    0.96134    0.87262   1.00
H2       0.56663    1.00376    0.88569   1.00
H2       0.52753    0.98410    0.91414   1.00
N1       0.57105    1.01267    0.94682   1.00
C6       0.60690    1.02706    0.95396   1.00
C6       0.54743    1.02484    0.97578   1.00
C6       0.60627    1.04854    0.98799   1.00
C6       0.56844    1.04712    1.00187   1.00
H3       0.63219    1.02235    0.93560   1.00
H3       0.51669    1.01785    0.97796   1.00
H3       0.63064    1.06361    1.00120   1.00
H3       0.55742    1.06081    1.02806   1.00
H2       0.80272    0.86465    0.95974   1.00
H2       0.76499    0.86625    0.99583   1.00
N1       0.75977    0.82050    0.95529   1.00
C6       0.78422    0.79017    0.94127   1.00
C6       0.72215    0.80350    0.95875   1.00
C6       0.76223    0.75675    0.93652   1.00
C6       0.72409    0.76494    0.94724   1.00
H3       0.81508    0.79308    0.93524   1.00
H3       0.69624    0.81873    0.96848   1.00
H3       0.77295    0.72896    0.92614   1.00
H3       0.69995    0.74465    0.94661   1.00
C4       1.14415    0.91513    0.91464   1.00
C4       1.18585    0.91487    0.91536   1.00
C3       1.12251    0.88898    0.89110   1.00
C3       1.20752    0.87974    0.91461   1.00
C3       1.12238    0.94115    0.93821   1.00
C3       1.20759    0.94998    0.91597   1.00
C2       1.05982    0.91485    0.91494   1.00
C2       1.27018    0.91485    0.91494   1.00
C3a      1.08099    0.88873    0.89113   1.00
C3       1.24882    0.87981    0.91442   1.00
C3       1.08111    0.94095    0.93832   1.00
C3a      1.24903    0.95018    0.91579   1.00
H1       1.13794    0.86881    0.87233   1.00
H1       1.19250    0.85195    0.91453   1.00
C5       1.05910    0.86057    0.86554   1.00
H1       1.26433    0.85229    0.91389   1.00
H1       1.06556    0.96112    0.95700   1.00
C5       1.27035    0.98857    0.91651   1.00
H1       1.19247    0.97769    0.91544   1.00
H1       1.13730    0.96134    0.95738   1.00
H2       1.26337    1.00376    0.94431   1.00
H2       1.30247    0.98410    0.91586   1.00
N1       1.25895    1.01267    0.88318   1.00
C6       1.22310    1.02706    0.87604   1.00
C6       1.28257    1.02484    0.85422   1.00
C6       1.22373    1.04854    0.84201   1.00
C6       1.26156    1.04712    0.82813   1.00
H3       1.19781    1.02235    0.89440   1.00
H3       1.31331    1.01785    0.85204   1.00
H3       1.19936    1.06361    0.82880   1.00
H3       1.27258    1.06081    0.80194   1.00
H2       1.02728    0.86465    0.87026   1.00
H2       1.06501    0.86625    0.83417   1.00
N1       1.07023    0.82050    0.87471   1.00
C6       1.04578    0.79017    0.88873   1.00
C6       1.10785    0.80350    0.87125   1.00
C6       1.06777    0.75675    0.89348   1.00
C6       1.10591    0.76494    0.88276   1.00
H3       1.01492    0.79308    0.89476   1.00
H3       1.13376    0.81873    0.86152   1.00
H3       1.05705    0.72896    0.90386   1.00
H3       1.13005    0.74465    0.88339   1.00
C4       0.91536    0.68585    0.91513   1.00
C4       0.91464    0.64415    0.91487   1.00
C3       0.93890    0.70749    0.88898   1.00
C3       0.91539    0.62248    0.87974   1.00
C3       0.89179    0.70762    0.94115   1.00
C3       0.91403    0.62241    0.94998   1.00
C2       0.91506    0.77018    0.91485   1.00
C2       0.91506    0.55982    0.91485   1.00
C3a      0.93887    0.74901    0.88873   1.00
C3       0.91558    0.58118    0.87981   1.00
C3       0.89168    0.74889    0.94095   1.00
C3a      0.91421    0.58097    0.95018   1.00
H1       0.95767    0.69206    0.86881   1.00
H1       0.91547    0.63750    0.85195   1.00
C5       0.96446    0.77090    0.86057   1.00
H1       0.91611    0.56567    0.85229   1.00
H1       0.87300    0.76444    0.96112   1.00
C5       0.91349    0.55965    0.98857   1.00
H1       0.91456    0.63753    0.97769   1.00
H1       0.87262    0.69270    0.96134   1.00
H2       0.88569    0.56663    1.00376   1.00
H2       0.91414    0.52753    0.98410   1.00
N1       0.94682    0.57105    1.01267   1.00
C6       0.95396    0.60690    1.02706   1.00
C6       0.97578    0.54743    1.02484   1.00
C6       0.98799    0.60627    1.04854   1.00
C6       1.00187    0.56844    1.04712   1.00
H3       0.93560    0.63219    1.02235   1.00
H3       0.97796    0.51669    1.01785   1.00
H3       1.00120    0.63064    1.06361   1.00
H3       1.02806    0.55742    1.06081   1.00
H2       0.95974    0.80272    0.86465   1.00
H2       0.99583    0.76499    0.86625   1.00
N1       0.95529    0.75977    0.82050   1.00
C6       0.94127    0.78422    0.79017   1.00
C6       0.95875    0.72215    0.80350   1.00
C6       0.93652    0.76223    0.75675   1.00
C6       0.94724    0.72409    0.76494   1.00
H3       0.93524    0.81508    0.79308   1.00
H3       0.96848    0.69624    0.81873   1.00
H3       0.92614    0.77295    0.72896   1.00
H3       0.94661    0.69995    0.74465   1.00
C4       0.91513    0.91536    0.68585   1.00
C4       0.91487    0.91464    0.64415   1.00
C3       0.88898    0.93890    0.70749   1.00
C3       0.87974    0.91539    0.62248   1.00
C3       0.94115    0.89179    0.70762   1.00
C3       0.94998    0.91403    0.62241   1.00
C2       0.91485    0.91506    0.77018   1.00
C2       0.91485    0.91506    0.55982   1.00
C3a      0.88873    0.93887    0.74901   1.00
C3       0.87981    0.91558    0.58118   1.00
C3       0.94095    0.89168    0.74889   1.00
C3a      0.95018    0.91421    0.58097   1.00
H1       0.86881    0.95767    0.69206   1.00
H1       0.85195    0.91547    0.63750   1.00
C5       0.86057    0.96446    0.77090   1.00
H1       0.85229    0.91611    0.56567   1.00
H1       0.96112    0.87300    0.76444   1.00
C5       0.98857    0.91349    0.55965   1.00
H1       0.97769    0.91456    0.63753   1.00
H1       0.96134    0.87262    0.69270   1.00
H2       1.00376    0.88569    0.56663   1.00
H2       0.98410    0.91414    0.52753   1.00
N1       1.01267    0.94682    0.57105   1.00
C6       1.02706    0.95396    0.60690   1.00
C6       1.02484    0.97578    0.54743   1.00
C6       1.04854    0.98799    0.60627   1.00
C6       1.04712    1.00187    0.56844   1.00
H3       1.02235    0.93560    0.63219   1.00
H3       1.01785    0.97796    0.51669   1.00
H3       1.06361    1.00120    0.63064   1.00
H3       1.06081    1.02806    0.55742   1.00
H2       0.86465    0.95974    0.80272   1.00
H2       0.86625    0.99583    0.76499   1.00
N1       0.82050    0.95529    0.75977   1.00
C6       0.79017    0.94127    0.78422   1.00
C6       0.80350    0.95875    0.72215   1.00
C6       0.75675    0.93652    0.76223   1.00
C6       0.76494    0.94724    0.72409   1.00
H3       0.79308    0.93524    0.81508   1.00
H3       0.81873    0.96848    0.69624   1.00
H3       0.72896    0.92614    0.77295   1.00
H3       0.74465    0.94661    0.69995   1.00
C4       0.41513    0.41464    1.14415   1.00
C4       0.41487    0.41536    1.18585   1.00
C3       0.38898    0.39110    1.12251   1.00
C3       0.37974    0.41461    1.20752   1.00
C3       0.44115    0.43821    1.12238   1.00
C3       0.44998    0.41597    1.20759   1.00
C2       0.41485    0.41494    1.05982   1.00
C2       0.41485    0.41494    1.27018   1.00
C3a      0.38873    0.39113    1.08099   1.00
C3       0.37981    0.41442    1.24882   1.00
C3       0.44095    0.43832    1.08111   1.00
C3a      0.45018    0.41579    1.24903   1.00
H1       0.36881    0.37233    1.13794   1.00
H1       0.35195    0.41453    1.19250   1.00
C5       0.36057    0.36554    1.05910   1.00
H1       0.35229    0.41389    1.26433   1.00
H1       0.46112    0.45700    1.06556   1.00
C5       0.48857    0.41651    1.27035   1.00
H1       0.47769    0.41544    1.19247   1.00
H1       0.46134    0.45738    1.13730   1.00
H2       0.50376    0.44431    1.26337   1.00
H2       0.48410    0.41586    1.30247   1.00
N1       0.51267    0.38318    1.25895   1.00
C6       0.52706    0.37604    1.22310   1.00
C6       0.52484    0.35422    1.28257   1.00
C6       0.54854    0.34201    1.22373   1.00
C6       0.54712    0.32813    1.26156   1.00
H3       0.52235    0.39440    1.19781   1.00
H3       0.51785    0.35204    1.31331   1.00
H3       0.56361    0.32880    1.19936   1.00
H3       0.56081    0.30194    1.27258   1.00
H2       0.36465    0.37026    1.02728   1.00
H2       0.36625    0.33417    1.06501   1.00
N1       0.32050    0.37471    1.07023   1.00
C6       0.29017    0.38873    1.04578   1.00
C6       0.30350    0.37125    1.10785   1.00
C6       0.25675    0.39348    1.06777   1.00
C6       0.26494    0.38276    1.10591   1.00
H3       0.29308    0.39476    1.01492   1.00
H3       0.31873    0.36152    1.13376   1.00
H3       0.22896    0.40386    1.05705   1.00
H3       0.24465    0.38339    1.13005   1.00
C4       0.41464    0.64415    0.91513   1.00
C4       0.41536    0.68585    0.91487   1.00
C3       0.39110    0.62251    0.88898   1.00
C3       0.41461    0.70752    0.87974   1.00
C3       0.43821    0.62238    0.94115   1.00
C3       0.41597    0.70759    0.94998   1.00
C2       0.41494    0.55982    0.91485   1.00
C2       0.41494    0.77018    0.91485   1.00
C3a      0.39113    0.58099    0.88873   1.00
C3       0.41442    0.74882    0.87981   1.00
C3       0.43832    0.58111    0.94095   1.00
C3a      0.41579    0.74903    0.95018   1.00
H1       0.37233    0.63794    0.86881   1.00
H1       0.41453    0.69250    0.85195   1.00
C5       0.36554    0.55910    0.86057   1.00
H1       0.41389    0.76433    0.85229   1.00
H1       0.45700    0.56556    0.96112   1.00
C5       0.41651    0.77035    0.98857   1.00
H1       0.41544    0.69247    0.97769   1.00
H1       0.45738    0.63730    0.96134   1.00
H2       0.44431    0.76337    1.00376   1.00
H2       0.41586    0.80247    0.98410   1.00
N1       0.38318    0.75895    1.01267   1.00
C6       0.37604    0.72310    1.02706   1.00
C6       0.35422    0.78257    1.02484   1.00
C6       0.34201    0.72373    1.04854   1.00
C6       0.32813    0.76156    1.04712   1.00
H3       0.39440    0.69781    1.02235   1.00
H3       0.35204    0.81331    1.01785   1.00
H3       0.32880    0.69936    1.06361   1.00
H3       0.30194    0.77258    1.06081   1.00
H2       0.37026    0.52728    0.86465   1.00
H2       0.33417    0.56501    0.86625   1.00
N1       0.37471    0.57023    0.82050   1.00
C6       0.38873    0.54578    0.79017   1.00
C6       0.37125    0.60785    0.80350   1.00
C6       0.39348    0.56777    0.75675   1.00
C6       0.38276    0.60591    0.76494   1.00
H3       0.39476    0.51492    0.79308   1.00
H3       0.36152    0.63376    0.81873   1.00
H3       0.40386    0.55705    0.72896   1.00
H3       0.38339    0.63005    0.74465   1.00
C4       0.18585    0.41513    0.91536   1.00
C4       0.14415    0.41487    0.91464   1.00
C3       0.20749    0.38898    0.93890   1.00
C3       0.12248    0.37974    0.91539   1.00
C3       0.20762    0.44115    0.89179   1.00
C3       0.12241    0.44998    0.91403   1.00
C2       0.27018    0.41485    0.91506   1.00
C2       0.05982    0.41485    0.91506   1.00
C3a      0.24901    0.38873    0.93887   1.00
C3       0.08118    0.37981    0.91558   1.00
C3       0.24889    0.44095    0.89168   1.00
C3a      0.08097    0.45018    0.91421   1.00
H1       0.19206    0.36881    0.95767   1.00
H1       0.13750    0.35195    0.91547   1.00
C5       0.27090    0.36057    0.96446   1.00
H1       0.06567    0.35229    0.91611   1.00
H1       0.26444    0.46112    0.87300   1.00
C5       0.05965    0.48857    0.91349   1.00
H1       0.13753    0.47769    0.91456   1.00
H1       0.19270    0.46134    0.87262   1.00
H2       0.06663    0.50376    0.88569   1.00
H2       0.02753    0.48410    0.91414   1.00
N1       0.07105    0.51267    0.94682   1.00
C6       0.10690    0.52706    0.95396   1.00
C6       0.04743    0.52484    0.97578   1.00
C6       0.10627    0.54854    0.98799   1.00
C6       0.06844    0.54712    1.00187   1.00
H3       0.13219    0.52235    0.93560   1.00
H3       0.01669    0.51785    0.97796   1.00
H3       0.13064    0.56361    1.00120   1.00
H3       0.05742    0.56081    1.02806   1.00
H2       0.30272    0.36465    0.95974   1.00
H2       0.26499    0.36625    0.99583   1.00
N1       0.25977    0.32050    0.95529   1.00
C6       0.28422    0.29017    0.94127   1.00
C6       0.22215    0.30350    0.95875   1.00
C6       0.26223    0.25675    0.93652   1.00
C6       0.22409    0.26494    0.94724   1.00
H3       0.31508    0.29308    0.93524   1.00
H3       0.19624    0.31873    0.96848   1.00
H3       0.27295    0.22896    0.92614   1.00
H3       0.19995    0.24465    0.94661   1.00
C4       0.64415    0.41513    0.91464   1.00
C4       0.68585    0.41487    0.91536   1.00
C3       0.62251    0.38898    0.89110   1.00
C3       0.70752    0.37974    0.91461   1.00
C3       0.62238    0.44115    0.93821   1.00
C3       0.70759    0.44998    0.91597   1.00
C2       0.55982    0.41485    0.91494   1.00
C2       0.77018    0.41485    0.91494   1.00
C3a      0.58099    0.38873    0.89113   1.00
C3       0.74882    0.37981    0.91442   1.00
C3       0.58111    0.44095    0.93832   1.00
C3a      0.74903    0.45018    0.91579   1.00
H1       0.63794    0.36881    0.87233   1.00
H1       0.69250    0.35195    0.91453   1.00
C5       0.55910    0.36057    0.86554   1.00
H1       0.76433    0.35229    0.91389   1.00
H1       0.56556    0.46112    0.95700   1.00
C5       0.77035    0.48857    0.91651   1.00
H1       0.69247    0.47769    0.91544   1.00
H1       0.63730    0.46134    0.95738   1.00
H2       0.76337    0.50376    0.94431   1.00
H2       0.80247    0.48410    0.91586   1.00
N1       0.75895    0.51267    0.88318   1.00
C6       0.72310    0.52706    0.87604   1.00
C6       0.78257    0.52484    0.85422   1.00
C6       0.72373    0.54854    0.84201   1.00
C6       0.76156    0.54712    0.82813   1.00
H3       0.69781    0.52235    0.89440   1.00
H3       0.81331    0.51785    0.85204   1.00
H3       0.69936    0.56361    0.82880   1.00
H3       0.77258    0.56081    0.80194   1.00
H2       0.52728    0.36465    0.87026   1.00
H2       0.56501    0.36625    0.83417   1.00
N1       0.57023    0.32050    0.87471   1.00
C6       0.54578    0.29017    0.88873   1.00
C6       0.60785    0.30350    0.87125   1.00
C6       0.56777    0.25675    0.89348   1.00
C6       0.60591    0.26494    0.88276   1.00
H3       0.51492    0.29308    0.89476   1.00
H3       0.63376    0.31873    0.86152   1.00
H3       0.55705    0.22896    0.90386   1.00
H3       0.63005    0.24465    0.88339   1.00
C4       0.41536    0.18585    0.91513   1.00
C4       0.41464    0.14415    0.91487   1.00
C3       0.43890    0.20749    0.88898   1.00
C3       0.41539    0.12248    0.87974   1.00
C3       0.39179    0.20762    0.94115   1.00
C3       0.41403    0.12241    0.94998   1.00
C2       0.41506    0.27018    0.91485   1.00
C2       0.41506    0.05982    0.91485   1.00
C3a      0.43887    0.24901    0.88873   1.00
C3       0.41558    0.08118    0.87981   1.00
C3       0.39168    0.24889    0.94095   1.00
C3a      0.41421    0.08097    0.95018   1.00
H1       0.45767    0.19206    0.86881   1.00
H1       0.41547    0.13750    0.85195   1.00
C5       0.46446    0.27090    0.86057   1.00
H1       0.41611    0.06567    0.85229   1.00
H1       0.37300    0.26444    0.96112   1.00
C5       0.41349    0.05965    0.98857   1.00
H1       0.41456    0.13753    0.97769   1.00
H1       0.37262    0.19270    0.96134   1.00
H2       0.38569    0.06663    1.00376   1.00
H2       0.41414    0.02753    0.98410   1.00
N1       0.44682    0.07105    1.01267   1.00
C6       0.45396    0.10690    1.02706   1.00
C6       0.47578    0.04743    1.02484   1.00
C6       0.48799    0.10627    1.04854   1.00
C6       0.50187    0.06844    1.04712   1.00
H3       0.43560    0.13219    1.02235   1.00
H3       0.47796    0.01669    1.01785   1.00
H3       0.50120    0.13064    1.06361   1.00
H3       0.52806    0.05742    1.06081   1.00
H2       0.45974    0.30272    0.86465   1.00
H2       0.49583    0.26499    0.86625   1.00
N1       0.45529    0.25977    0.82050   1.00
C6       0.44127    0.28422    0.79017   1.00
C6       0.45875    0.22215    0.80350   1.00
C6       0.43652    0.26223    0.75675   1.00
C6       0.44724    0.22409    0.76494   1.00
H3       0.43524    0.31508    0.79308   1.00
H3       0.46848    0.19624    0.81873   1.00
H3       0.42614    0.27295    0.72896   1.00
H3       0.44661    0.19995    0.74465   1.00
C4       0.41513    0.41536    0.68585   1.00
C4       0.41487    0.41464    0.64415   1.00
C3       0.38898    0.43890    0.70749   1.00
C3       0.37974    0.41539    0.62248   1.00
C3       0.44115    0.39179    0.70762   1.00
C3       0.44998    0.41403    0.62241   1.00
C2       0.41485    0.41506    0.77018   1.00
C2       0.41485    0.41506    0.55982   1.00
C3a      0.38873    0.43887    0.74901   1.00
C3       0.37981    0.41558    0.58118   1.00
C3       0.44095    0.39168    0.74889   1.00
C3a      0.45018    0.41421    0.58097   1.00
H1       0.36881    0.45767    0.69206   1.00
H1       0.35195    0.41547    0.63750   1.00
C5       0.36057    0.46446    0.77090   1.00
H1       0.35229    0.41611    0.56567   1.00
H1       0.46112    0.37300    0.76444   1.00
C5       0.48857    0.41349    0.55965   1.00
H1       0.47769    0.41456    0.63753   1.00
H1       0.46134    0.37262    0.69270   1.00
H2       0.50376    0.38569    0.56663   1.00
H2       0.48410    0.41414    0.52753   1.00
N1       0.51267    0.44682    0.57105   1.00
C6       0.52706    0.45396    0.60690   1.00
C6       0.52484    0.47578    0.54743   1.00
C6       0.54854    0.48799    0.60627   1.00
C6       0.54712    0.50187    0.56844   1.00
H3       0.52235    0.43560    0.63219   1.00
H3       0.51785    0.47796    0.51669   1.00
H3       0.56361    0.50120    0.63064   1.00
H3       0.56081    0.52806    0.55742   1.00
H2       0.36465    0.45974    0.80272   1.00
H2       0.36625    0.49583    0.76499   1.00
N1       0.32050    0.45529    0.75977   1.00
C6       0.29017    0.44127    0.78422   1.00
C6       0.30350    0.45875    0.72215   1.00
C6       0.25675    0.43652    0.76223   1.00
C6       0.26494    0.44724    0.72409   1.00
H3       0.29308    0.43524    0.81508   1.00
H3       0.31873    0.46848    0.69624   1.00
H3       0.22896    0.42614    0.77295   1.00
H3       0.24465    0.44661    0.69995   1.00
C4       0.41513    0.91464    0.64415   1.00
C4       0.41487    0.91536    0.68585   1.00
C3       0.38898    0.89110    0.62251   1.00
C3       0.37974    0.91461    0.70752   1.00
C3       0.44115    0.93821    0.62238   1.00
C3       0.44998    0.91597    0.70759   1.00
C2       0.41485    0.91494    0.55982   1.00
C2       0.41485    0.91494    0.77018   1.00
C3a      0.38873    0.89113    0.58099   1.00
C3       0.37981    0.91442    0.74882   1.00
C3       0.44095    0.93832    0.58111   1.00
C3a      0.45018    0.91579    0.74903   1.00
H1       0.36881    0.87233    0.63794   1.00
H1       0.35195    0.91453    0.69250   1.00
C5       0.36057    0.86554    0.55910   1.00
H1       0.35229    0.91389    0.76433   1.00
H1       0.46112    0.95700    0.56556   1.00
C5       0.48857    0.91651    0.77035   1.00
H1       0.47769    0.91544    0.69247   1.00
H1       0.46134    0.95738    0.63730   1.00
H2       0.50376    0.94431    0.76337   1.00
H2       0.48410    0.91586    0.80247   1.00
N1       0.51267    0.88318    0.75895   1.00
C6       0.52706    0.87604    0.72310   1.00
C6       0.52484    0.85422    0.78257   1.00
C6       0.54854    0.84201    0.72373   1.00
C6       0.54712    0.82813    0.76156   1.00
H3       0.52235    0.89440    0.69781   1.00
H3       0.51785    0.85204    0.81331   1.00
H3       0.56361    0.82880    0.69936   1.00
H3       0.56081    0.80194    0.77258   1.00
H2       0.36465    0.87026    0.52728   1.00
H2       0.36625    0.83417    0.56501   1.00
N1       0.32050    0.87471    0.57023   1.00
C6       0.29017    0.88873    0.54578   1.00
C6       0.30350    0.87125    0.60785   1.00
C6       0.25675    0.89348    0.56777   1.00
C6       0.26494    0.88276    0.60591   1.00
H3       0.29308    0.89476    0.51492   1.00
H3       0.31873    0.86152    0.63376   1.00
H3       0.22896    0.90386    0.55705   1.00
H3       0.24465    0.88339    0.63005   1.00
C4       0.41464    1.14415    0.41513   1.00
C4       0.41536    1.18585    0.41487   1.00
C3       0.39110    1.12251    0.38898   1.00
C3       0.41461    1.20752    0.37974   1.00
C3       0.43821    1.12238    0.44115   1.00
C3       0.41597    1.20759    0.44998   1.00
C2       0.41494    1.05982    0.41485   1.00
C2       0.41494    1.27018    0.41485   1.00
C3a      0.39113    1.08099    0.38873   1.00
C3       0.41442    1.24882    0.37981   1.00
C3       0.43832    1.08111    0.44095   1.00
C3a      0.41579    1.24903    0.45018   1.00
H1       0.37233    1.13794    0.36881   1.00
H1       0.41453    1.19250    0.35195   1.00
C5       0.36554    1.05910    0.36057   1.00
H1       0.41389    1.26433    0.35229   1.00
H1       0.45700    1.06556    0.46112   1.00
C5       0.41651    1.27035    0.48857   1.00
H1       0.41544    1.19247    0.47769   1.00
H1       0.45738    1.13730    0.46134   1.00
H2       0.44431    1.26337    0.50376   1.00
H2       0.41586    1.30247    0.48410   1.00
N1       0.38318    1.25895    0.51267   1.00
C6       0.37604    1.22310    0.52706   1.00
C6       0.35422    1.28257    0.52484   1.00
C6       0.34201    1.22373    0.54854   1.00
C6       0.32813    1.26156    0.54712   1.00
H3       0.39440    1.19781    0.52235   1.00
H3       0.35204    1.31331    0.51785   1.00
H3       0.32880    1.19936    0.56361   1.00
H3       0.30194    1.27258    0.56081   1.00
H2       0.37026    1.02728    0.36465   1.00
H2       0.33417    1.06501    0.36625   1.00
N1       0.37471    1.07023    0.32050   1.00
C6       0.38873    1.04578    0.29017   1.00
C6       0.37125    1.10785    0.30350   1.00
C6       0.39348    1.06777    0.25675   1.00
C6       0.38276    1.10591    0.26494   1.00
H3       0.39476    1.01492    0.29308   1.00
H3       0.36152    1.13376    0.31873   1.00
H3       0.40386    1.05705    0.22896   1.00
H3       0.38339    1.13005    0.24465   1.00
C4       0.18585    0.91513    0.41536   1.00
C4       0.14415    0.91487    0.41464   1.00
C3       0.20749    0.88898    0.43890   1.00
C3       0.12248    0.87974    0.41539   1.00
C3       0.20762    0.94115    0.39179   1.00
C3       0.12241    0.94998    0.41403   1.00
C2       0.27018    0.91485    0.41506   1.00
C2       0.05982    0.91485    0.41506   1.00
C3a      0.24901    0.88873    0.43887   1.00
C3       0.08118    0.87981    0.41558   1.00
C3       0.24889    0.94095    0.39168   1.00
C3a      0.08097    0.95018    0.41421   1.00
H1       0.19206    0.86881    0.45767   1.00
H1       0.13750    0.85195    0.41547   1.00
C5       0.27090    0.86057    0.46446   1.00
H1       0.06567    0.85229    0.41611   1.00
H1       0.26444    0.96112    0.37300   1.00
C5       0.05965    0.98857    0.41349   1.00
H1       0.13753    0.97769    0.41456   1.00
H1       0.19270    0.96134    0.37262   1.00
H2       0.06663    1.00376    0.38569   1.00
H2       0.02753    0.98410    0.41414   1.00
N1       0.07105    1.01267    0.44682   1.00
C6       0.10690    1.02706    0.45396   1.00
C6       0.04743    1.02484    0.47578   1.00
C6       0.10627    1.04854    0.48799   1.00
C6       0.06844    1.04712    0.50187   1.00
H3       0.13219    1.02235    0.43560   1.00
H3       0.01669    1.01785    0.47796   1.00
H3       0.13064    1.06361    0.50120   1.00
H3       0.05742    1.06081    0.52806   1.00
H2       0.30272    0.86465    0.45974   1.00
H2       0.26499    0.86625    0.49583   1.00
N1       0.25977    0.82050    0.45529   1.00
C6       0.28422    0.79017    0.44127   1.00
C6       0.22215    0.80350    0.45875   1.00
C6       0.26223    0.75675    0.43652   1.00
C6       0.22409    0.76494    0.44724   1.00
H3       0.31508    0.79308    0.43524   1.00
H3       0.19624    0.81873    0.46848   1.00
H3       0.27295    0.72896    0.42614   1.00
H3       0.19995    0.74465    0.44661   1.00
C4       0.64415    0.91513    0.41464   1.00
C4       0.68585    0.91487    0.41536   1.00
C3       0.62251    0.88898    0.39110   1.00
C3       0.70752    0.87974    0.41461   1.00
C3       0.62238    0.94115    0.43821   1.00
C3       0.70759    0.94998    0.41597   1.00
C2       0.55982    0.91485    0.41494   1.00
C2       0.77018    0.91485    0.41494   1.00
C3a      0.58099    0.88873    0.39113   1.00
C3       0.74882    0.87981    0.41442   1.00
C3       0.58111    0.94095    0.43832   1.00
C3a      0.74903    0.95018    0.41579   1.00
H1       0.63794    0.86881    0.37233   1.00
H1       0.69250    0.85195    0.41453   1.00
C5       0.55910    0.86057    0.36554   1.00
H1       0.76433    0.85229    0.41389   1.00
H1       0.56556    0.96112    0.45700   1.00
C5       0.77035    0.98857    0.41651   1.00
H1       0.69247    0.97769    0.41544   1.00
H1       0.63730    0.96134    0.45738   1.00
H2       0.76337    1.00376    0.44431   1.00
H2       0.80247    0.98410    0.41586   1.00
N1       0.75895    1.01267    0.38318   1.00
C6       0.72310    1.02706    0.37604   1.00
C6       0.78257    1.02484    0.35422   1.00
C6       0.72373    1.04854    0.34201   1.00
C6       0.76156    1.04712    0.32813   1.00
H3       0.69781    1.02235    0.39440   1.00
H3       0.81331    1.01785    0.35204   1.00
H3       0.69936    1.06361    0.32880   1.00
H3       0.77258    1.06081    0.30194   1.00
H2       0.52728    0.86465    0.37026   1.00
H2       0.56501    0.86625    0.33417   1.00
N1       0.57023    0.82050    0.37471   1.00
C6       0.54578    0.79017    0.38873   1.00
C6       0.60785    0.80350    0.37125   1.00
C6       0.56777    0.75675    0.39348   1.00
C6       0.60591    0.76494    0.38276   1.00
H3       0.51492    0.79308    0.39476   1.00
H3       0.63376    0.81873    0.36152   1.00
H3       0.55705    0.72896    0.40386   1.00
H3       0.63005    0.74465    0.38339   1.00
C4       0.41536    0.68585    0.41513   1.00
C4       0.41464    0.64415    0.41487   1.00
C3       0.43890    0.70749    0.38898   1.00
C3       0.41539    0.62248    0.37974   1.00
C3       0.39179    0.70762    0.44115   1.00
C3       0.41403    0.62241    0.44998   1.00
C2       0.41506    0.77018    0.41485   1.00
C2       0.41506    0.55982    0.41485   1.00
C3a      0.43887    0.74901    0.38873   1.00
C3       0.41558    0.58118    0.37981   1.00
C3       0.39168    0.74889    0.44095   1.00
C3a      0.41421    0.58097    0.45018   1.00
H1       0.45767    0.69206    0.36881   1.00
H1       0.41547    0.63750    0.35195   1.00
C5       0.46446    0.77090    0.36057   1.00
H1       0.41611    0.56567    0.35229   1.00
H1       0.37300    0.76444    0.46112   1.00
C5       0.41349    0.55965    0.48857   1.00
H1       0.41456    0.63753    0.47769   1.00
H1       0.37262    0.69270    0.46134   1.00
H2       0.38569    0.56663    0.50376   1.00
H2       0.41414    0.52753    0.48410   1.00
N1       0.44682    0.57105    0.51267   1.00
C6       0.45396    0.60690    0.52706   1.00
C6       0.47578    0.54743    0.52484   1.00
C6       0.48799    0.60627    0.54854   1.00
C6       0.50187    0.56844    0.54712   1.00
H3       0.43560    0.63219    0.52235   1.00
H3       0.47796    0.51669    0.51785   1.00
H3       0.50120    0.63064    0.56361   1.00
H3       0.52806    0.55742    0.56081   1.00
H2       0.45974    0.80272    0.36465   1.00
H2       0.49583    0.76499    0.36625   1.00
N1       0.45529    0.75977    0.32050   1.00
C6       0.44127    0.78422    0.29017   1.00
C6       0.45875    0.72215    0.30350   1.00
C6       0.43652    0.76223    0.25675   1.00
C6       0.44724    0.72409    0.26494   1.00
H3       0.43524    0.81508    0.29308   1.00
H3       0.46848    0.69624    0.31873   1.00
H3       0.42614    0.77295    0.22896   1.00
H3       0.44661    0.69995    0.24465   1.00
C4       0.41513    0.91536    0.18585   1.00
C4       0.41487    0.91464    0.14415   1.00
C3       0.38898    0.93890    0.20749   1.00
C3       0.37974    0.91539    0.12248   1.00
C3       0.44115    0.89179    0.20762   1.00
C3       0.44998    0.91403    0.12241   1.00
C2       0.41485    0.91506    0.27018   1.00
C2       0.41485    0.91506    0.05982   1.00
C3a      0.38873    0.93887    0.24901   1.00
C3       0.37981    0.91558    0.08118   1.00
C3       0.44095    0.89168    0.24889   1.00
C3a      0.45018    0.91421    0.08097   1.00
H1       0.36881    0.95767    0.19206   1.00
H1       0.35195    0.91547    0.13750   1.00
C5       0.36057    0.96446    0.27090   1.00
H1       0.35229    0.91611    0.06567   1.00
H1       0.46112    0.87300    0.26444   1.00
C5       0.48857    0.91349    0.05965   1.00
H1       0.47769    0.91456    0.13753   1.00
H1       0.46134    0.87262    0.19270   1.00
H2       0.50376    0.88569    0.06663   1.00
H2       0.48410    0.91414    0.02753   1.00
N1       0.51267    0.94682    0.07105   1.00
C6       0.52706    0.95396    0.10690   1.00
C6       0.52484    0.97578    0.04743   1.00
C6       0.54854    0.98799    0.10627   1.00
C6       0.54712    1.00187    0.06844   1.00
H3       0.52235    0.93560    0.13219   1.00
H3       0.51785    0.97796    0.01669   1.00
H3       0.56361    1.00120    0.13064   1.00
H3       0.56081    1.02806    0.05742   1.00
H2       0.36465    0.95974    0.30272   1.00
H2       0.36625    0.99583    0.26499   1.00
N1       0.32050    0.95529    0.25977   1.00
C6       0.29017    0.94127    0.28422   1.00
C6       0.30350    0.95875    0.22215   1.00
C6       0.25675    0.93652    0.26223   1.00
C6       0.26494    0.94724    0.22409   1.00
H3       0.29308    0.93524    0.31508   1.00
H3       0.31873    0.96848    0.19624   1.00
H3       0.22896    0.92614    0.27295   1.00
H3       0.24465    0.94661    0.19995   1.00
C4       0.91513    0.41464    0.64415   1.00
C4       0.91487    0.41536    0.68585   1.00
C3       0.88898    0.39110    0.62251   1.00
C3       0.87974    0.41461    0.70752   1.00
C3       0.94115    0.43821    0.62238   1.00
C3       0.94998    0.41597    0.70759   1.00
C2       0.91485    0.41494    0.55982   1.00
C2       0.91485    0.41494    0.77018   1.00
C3a      0.88873    0.39113    0.58099   1.00
C3       0.87981    0.41442    0.74882   1.00
C3       0.94095    0.43832    0.58111   1.00
C3a      0.95018    0.41579    0.74903   1.00
H1       0.86881    0.37233    0.63794   1.00
H1       0.85195    0.41453    0.69250   1.00
C5       0.86057    0.36554    0.55910   1.00
H1       0.85229    0.41389    0.76433   1.00
H1       0.96112    0.45700    0.56556   1.00
C5       0.98857    0.41651    0.77035   1.00
H1       0.97769    0.41544    0.69247   1.00
H1       0.96134    0.45738    0.63730   1.00
H2       1.00376    0.44431    0.76337   1.00
H2       0.98410    0.41586    0.80247   1.00
N1       1.01267    0.38318    0.75895   1.00
C6       1.02706    0.37604    0.72310   1.00
C6       1.02484    0.35422    0.78257   1.00
C6       1.04854    0.34201    0.72373   1.00
C6       1.04712    0.32813    0.76156   1.00
H3       1.02235    0.39440    0.69781   1.00
H3       1.01785    0.35204    0.81331   1.00
H3       1.06361    0.32880    0.69936   1.00
H3       1.06081    0.30194    0.77258   1.00
H2       0.86465    0.37026    0.52728   1.00
H2       0.86625    0.33417    0.56501   1.00
N1       0.82050    0.37471    0.57023   1.00
C6       0.79017    0.38873    0.54578   1.00
C6       0.80350    0.37125    0.60785   1.00
C6       0.75675    0.39348    0.56777   1.00
C6       0.76494    0.38276    0.60591   1.00
H3       0.79308    0.39476    0.51492   1.00
H3       0.81873    0.36152    0.63376   1.00
H3       0.72896    0.40386    0.55705   1.00
H3       0.74465    0.38339    0.63005   1.00
C4       0.91464    0.64415    0.41513   1.00
C4       0.91536    0.68585    0.41487   1.00
C3       0.89110    0.62251    0.38898   1.00
C3       0.91461    0.70752    0.37974   1.00
C3       0.93821    0.62238    0.44115   1.00
C3       0.91597    0.70759    0.44998   1.00
C2       0.91494    0.55982    0.41485   1.00
C2       0.91494    0.77018    0.41485   1.00
C3a      0.89113    0.58099    0.38873   1.00
C3       0.91442    0.74882    0.37981   1.00
C3       0.93832    0.58111    0.44095   1.00
C3a      0.91579    0.74903    0.45018   1.00
H1       0.87233    0.63794    0.36881   1.00
H1       0.91453    0.69250    0.35195   1.00
C5       0.86554    0.55910    0.36057   1.00
H1       0.91389    0.76433    0.35229   1.00
H1       0.95700    0.56556    0.46112   1.00
C5       0.91651    0.77035    0.48857   1.00
H1       0.91544    0.69247    0.47769   1.00
H1       0.95738    0.63730    0.46134   1.00
H2       0.94431    0.76337    0.50376   1.00
H2       0.91586    0.80247    0.48410   1.00
N1       0.88318    0.75895    0.51267   1.00
C6       0.87604    0.72310    0.52706   1.00
C6       0.85422    0.78257    0.52484   1.00
C6       0.84201    0.72373    0.54854   1.00
C6       0.82813    0.76156    0.54712   1.00
H3       0.89440    0.69781    0.52235   1.00
H3       0.85204    0.81331    0.51785   1.00
H3       0.82880    0.69936    0.56361   1.00
H3       0.80194    0.77258    0.56081   1.00
H2       0.87026    0.52728    0.36465   1.00
H2       0.83417    0.56501    0.36625   1.00
N1       0.87471    0.57023    0.32050   1.00
C6       0.88873    0.54578    0.29017   1.00
C6       0.87125    0.60785    0.30350   1.00
C6       0.89348    0.56777    0.25675   1.00
C6       0.88276    0.60591    0.26494   1.00
H3       0.89476    0.51492    0.29308   1.00
H3       0.86152    0.63376    0.31873   1.00
H3       0.90386    0.55705    0.22896   1.00
H3       0.88339    0.63005    0.24465   1.00
C4       0.68585    0.41513    0.41536   1.00
C4       0.64415    0.41487    0.41464   1.00
C3       0.70749    0.38898    0.43890   1.00
C3       0.62248    0.37974    0.41539   1.00
C3       0.70762    0.44115    0.39179   1.00
C3       0.62241    0.44998    0.41403   1.00
C2       0.77018    0.41485    0.41506   1.00
C2       0.55982    0.41485    0.41506   1.00
C3a      0.74901    0.38873    0.43887   1.00
C3       0.58118    0.37981    0.41558   1.00
C3       0.74889    0.44095    0.39168   1.00
C3a      0.58097    0.45018    0.41421   1.00
H1       0.69206    0.36881    0.45767   1.00
H1       0.63750    0.35195    0.41547   1.00
C5       0.77090    0.36057    0.46446   1.00
H1       0.56567    0.35229    0.41611   1.00
H1       0.76444    0.46112    0.37300   1.00
C5       0.55965    0.48857    0.41349   1.00
H1       0.63753    0.47769    0.41456   1.00
H1       0.69270    0.46134    0.37262   1.00
H2       0.56663    0.50376    0.38569   1.00
H2       0.52753    0.48410    0.41414   1.00
N1       0.57105    0.51267    0.44682   1.00
C6       0.60690    0.52706    0.45396   1.00
C6       0.54743    0.52484    0.47578   1.00
C6       0.60627    0.54854    0.48799   1.00
C6       0.56844    0.54712    0.50187   1.00
H3       0.63219    0.52235    0.43560   1.00
H3       0.51669    0.51785    0.47796   1.00
H3       0.63064    0.56361    0.50120   1.00
H3       0.55742    0.56081    0.52806   1.00
H2       0.80272    0.36465    0.45974   1.00
H2       0.76499    0.36625    0.49583   1.00
N1       0.75977    0.32050    0.45529   1.00
C6       0.78422    0.29017    0.44127   1.00
C6       0.72215    0.30350    0.45875   1.00
C6       0.76223    0.25675    0.43652   1.00
C6       0.72409    0.26494    0.44724   1.00
H3       0.81508    0.29308    0.43524   1.00
H3       0.69624    0.31873    0.46848   1.00
H3       0.77295    0.22896    0.42614   1.00
H3       0.69995    0.24465    0.44661   1.00
C4       1.14415    0.41513    0.41464   1.00
C4       1.18585    0.41487    0.41536   1.00
C3       1.12251    0.38898    0.39110   1.00
C3       1.20752    0.37974    0.41461   1.00
C3       1.12238    0.44115    0.43821   1.00
C3       1.20759    0.44998    0.41597   1.00
C2       1.05982    0.41485    0.41494   1.00
C2       1.27018    0.41485    0.41494   1.00
C3a      1.08099    0.38873    0.39113   1.00
C3       1.24882    0.37981    0.41442   1.00
C3       1.08111    0.44095    0.43832   1.00
C3a      1.24903    0.45018    0.41579   1.00
H1       1.13794    0.36881    0.37233   1.00
H1       1.19250    0.35195    0.41453   1.00
C5       1.05910    0.36057    0.36554   1.00
H1       1.26433    0.35229    0.41389   1.00
H1       1.06556    0.46112    0.45700   1.00
C5       1.27035    0.48857    0.41651   1.00
H1       1.19247    0.47769    0.41544   1.00
H1       1.13730    0.46134    0.45738   1.00
H2       1.26337    0.50376    0.44431   1.00
H2       1.30247    0.48410    0.41586   1.00
N1       1.25895    0.51267    0.38318   1.00
C6       1.22310    0.52706    0.37604   1.00
C6       1.28257    0.52484    0.35422   1.00
C6       1.22373    0.54854    0.34201   1.00
C6       1.26156    0.54712    0.32813   1.00
H3       1.19781    0.52235    0.39440   1.00
H3       1.31331    0.51785    0.35204   1.00
H3       1.19936    0.56361    0.32880   1.00
H3       1.27258    0.56081    0.30194   1.00
H2       1.02728    0.36465    0.37026   1.00
H2       1.06501    0.36625    0.33417   1.00
N1       1.07023    0.32050    0.37471   1.00
C6       1.04578    0.29017    0.38873   1.00
C6       1.10785    0.30350    0.37125   1.00
C6       1.06777    0.25675    0.39348   1.00
C6       1.10591    0.26494    0.38276   1.00
H3       1.01492    0.29308    0.39476   1.00
H3       1.13376    0.31873    0.36152   1.00
H3       1.05705    0.22896    0.40386   1.00
H3       1.13005    0.24465    0.38339   1.00
C4       0.91536    0.18585    0.41513   1.00
C4       0.91464    0.14415    0.41487   1.00
C3       0.93890    0.20749    0.38898   1.00
C3       0.91539    0.12248    0.37974   1.00
C3       0.89179    0.20762    0.44115   1.00
C3       0.91403    0.12241    0.44998   1.00
C2       0.91506    0.27018    0.41485   1.00
C2       0.91506    0.05982    0.41485   1.00
C3a      0.93887    0.24901    0.38873   1.00
C3       0.91558    0.08118    0.37981   1.00
C3       0.89168    0.24889    0.44095   1.00
C3a      0.91421    0.08097    0.45018   1.00
H1       0.95767    0.19206    0.36881   1.00
H1       0.91547    0.13750    0.35195   1.00
C5       0.96446    0.27090    0.36057   1.00
H1       0.91611    0.06567    0.35229   1.00
H1       0.87300    0.26444    0.46112   1.00
C5       0.91349    0.05965    0.48857   1.00
H1       0.91456    0.13753    0.47769   1.00
H1       0.87262    0.19270    0.46134   1.00
H2       0.88569    0.06663    0.50376   1.00
H2       0.91414    0.02753    0.48410   1.00
N1       0.94682    0.07105    0.51267   1.00
C6       0.95396    0.10690    0.52706   1.00
C6       0.97578    0.04743    0.52484   1.00
C6       0.98799    0.10627    0.54854   1.00
C6       1.00187    0.06844    0.54712   1.00
H3       0.93560    0.13219    0.52235   1.00
H3       0.97796    0.01669    0.51785   1.00
H3       1.00120    0.13064    0.56361   1.00
H3       1.02806    0.05742    0.56081   1.00
H2       0.95974    0.30272    0.36465   1.00
H2       0.99583    0.26499    0.36625   1.00
N1       0.95529    0.25977    0.32050   1.00
C6       0.94127    0.28422    0.29017   1.00
C6       0.95875    0.22215    0.30350   1.00
C6       0.93652    0.26223    0.25675   1.00
C6       0.94724    0.22409    0.26494   1.00
H3       0.93524    0.31508    0.29308   1.00
H3       0.96848    0.19624    0.31873   1.00
H3       0.92614    0.27295    0.22896   1.00
H3       0.94661    0.19995    0.24465   1.00
C4       0.91513    0.41536    0.18585   1.00
C4       0.91487    0.41464    0.14415   1.00
C3       0.88898    0.43890    0.20749   1.00
C3       0.87974    0.41539    0.12248   1.00
C3       0.94115    0.39179    0.20762   1.00
C3       0.94998    0.41403    0.12241   1.00
C2       0.91485    0.41506    0.27018   1.00
C2       0.91485    0.41506    0.05982   1.00
C3a      0.88873    0.43887    0.24901   1.00
C3       0.87981    0.41558    0.08118   1.00
C3       0.94095    0.39168    0.24889   1.00
C3a      0.95018    0.41421    0.08097   1.00
H1       0.86881    0.45767    0.19206   1.00
H1       0.85195    0.41547    0.13750   1.00
C5       0.86057    0.46446    0.27090   1.00
H1       0.85229    0.41611    0.06567   1.00
H1       0.96112    0.37300    0.26444   1.00
C5       0.98857    0.41349    0.05965   1.00
H1       0.97769    0.41456    0.13753   1.00
H1       0.96134    0.37262    0.19270   1.00
H2       1.00376    0.38569    0.06663   1.00
H2       0.98410    0.41414    0.02753   1.00
N1       1.01267    0.44682    0.07105   1.00
C6       1.02706    0.45396    0.10690   1.00
C6       1.02484    0.47578    0.04743   1.00
C6       1.04854    0.48799    0.10627   1.00
C6       1.04712    0.50187    0.06844   1.00
H3       1.02235    0.43560    0.13219   1.00
H3       1.01785    0.47796    0.01669   1.00
H3       1.06361    0.50120    0.13064   1.00
H3       1.06081    0.52806    0.05742   1.00
H2       0.86465    0.45974    0.30272   1.00
H2       0.86625    0.49583    0.26499   1.00
N1       0.82050    0.45529    0.25977   1.00
C6       0.79017    0.44127    0.28422   1.00
C6       0.80350    0.45875    0.22215   1.00
C6       0.75675    0.43652    0.26223   1.00
C6       0.76494    0.44724    0.22409   1.00
H3       0.79308    0.43524    0.31508   1.00
H3       0.81873    0.46848    0.19624   1.00
H3       0.72896    0.42614    0.27295   1.00
H3       0.74465    0.44661    0.19995   1.00
