data_IRMOF10_SG202_interpen_Ligand1cp_label_e.

_audit_creation_method             'generated by an auxiliary program of Tobunporous'

_symmetry_space_group_name_H-M     'P 1'
_symmetry_Int_Tables_number        1
_symmetry_cell_setting             triclinic

_cell_length_a                    34.2800
_cell_length_b                    34.2800
_cell_length_c                    34.2800
_cell_angle_alpha                 90.0000
_cell_angle_beta                  90.0000
_cell_angle_gamma                 90.0000

loop_
_atom_site_label
_atom_site_fract_x
_atom_site_fract_y
_atom_site_fract_z
_atom_site_occupancy
O1       0.75000    0.75000    0.75000   1.00
Zn1      0.71720    0.78280    0.78280   1.00
Zn1      0.78280    0.71720    0.78280   1.00
Zn1      0.78280    0.78280    0.71720   1.00
Zn1      0.71720    0.71720    0.71720   1.00
O2       0.72650    0.77350    0.83820   1.00
O2       0.72650    0.83820    0.77350   1.00
O2       0.66180    0.77350    0.77350   1.00
O2       0.77350    0.72650    0.83820   1.00
O2       0.83820    0.72650    0.77350   1.00
O2       0.77350    0.66180    0.77350   1.00
O2       0.77350    0.83820    0.72650   1.00
O2       0.83820    0.77350    0.72650   1.00
O2       0.77350    0.77350    0.66180   1.00
O2       0.66180    0.72650    0.72650   1.00
O2       0.72650    0.66180    0.72650   1.00
O2       0.72650    0.72650    0.66180   1.00
C1       0.75000    0.75000    0.85520   1.00
C1       0.75000    0.85520    0.75000   1.00
C1       0.64480    0.75000    0.75000   1.00
C1       0.85520    0.75000    0.75000   1.00
C1       0.75000    0.64480    0.75000   1.00
C1       0.75000    0.75000    0.64480   1.00
O1       0.25000    0.25000    0.75000   1.00
Zn1      0.21720    0.28280    0.78280   1.00
Zn1      0.28280    0.21720    0.78280   1.00
Zn1      0.28280    0.28280    0.71720   1.00
Zn1      0.21720    0.21720    0.71720   1.00
O2       0.22650    0.27350    0.83820   1.00
O2       0.22650    0.33820    0.77350   1.00
O2       0.16180    0.27350    0.77350   1.00
O2       0.27350    0.22650    0.83820   1.00
O2       0.33820    0.22650    0.77350   1.00
O2       0.27350    0.16180    0.77350   1.00
O2       0.27350    0.33820    0.72650   1.00
O2       0.33820    0.27350    0.72650   1.00
O2       0.27350    0.27350    0.66180   1.00
O2       0.16180    0.22650    0.72650   1.00
O2       0.22650    0.16180    0.72650   1.00
O2       0.22650    0.22650    0.66180   1.00
C1       0.25000    0.25000    0.85520   1.00
C1       0.25000    0.35520    0.75000   1.00
C1       0.14480    0.25000    0.75000   1.00
C1       0.35520    0.25000    0.75000   1.00
C1       0.25000    0.14480    0.75000   1.00
C1       0.25000    0.25000    0.64480   1.00
O1       0.25000    0.75000    0.25000   1.00
Zn1      0.21720    0.78280    0.28280   1.00
Zn1      0.28280    0.71720    0.28280   1.00
Zn1      0.28280    0.78280    0.21720   1.00
Zn1      0.21720    0.71720    0.21720   1.00
O2       0.22650    0.77350    0.33820   1.00
O2       0.22650    0.83820    0.27350   1.00
O2       0.16180    0.77350    0.27350   1.00
O2       0.27350    0.72650    0.33820   1.00
O2       0.33820    0.72650    0.27350   1.00
O2       0.27350    0.66180    0.27350   1.00
O2       0.27350    0.83820    0.22650   1.00
O2       0.33820    0.77350    0.22650   1.00
O2       0.27350    0.77350    0.16180   1.00
O2       0.16180    0.72650    0.22650   1.00
O2       0.22650    0.66180    0.22650   1.00
O2       0.22650    0.72650    0.16180   1.00
C1       0.25000    0.75000    0.35520   1.00
C1       0.25000    0.85520    0.25000   1.00
C1       0.14480    0.75000    0.25000   1.00
C1       0.35520    0.75000    0.25000   1.00
C1       0.25000    0.64480    0.25000   1.00
C1       0.25000    0.75000    0.14480   1.00
O1       0.75000    0.25000    0.25000   1.00
Zn1      0.71720    0.28280    0.28280   1.00
Zn1      0.78280    0.21720    0.28280   1.00
Zn1      0.78280    0.28280    0.21720   1.00
Zn1      0.71720    0.21720    0.21720   1.00
O2       0.72650    0.27350    0.33820   1.00
O2       0.72650    0.33820    0.27350   1.00
O2       0.66180    0.27350    0.27350   1.00
O2       0.77350    0.22650    0.33820   1.00
O2       0.83820    0.22650    0.27350   1.00
O2       0.77350    0.16180    0.27350   1.00
O2       0.77350    0.33820    0.22650   1.00
O2       0.83820    0.27350    0.22650   1.00
O2       0.77350    0.27350    0.16180   1.00
O2       0.66180    0.22650    0.22650   1.00
O2       0.72650    0.16180    0.22650   1.00
O2       0.72650    0.22650    0.16180   1.00
C1       0.75000    0.25000    0.35520   1.00
C1       0.75000    0.35520    0.25000   1.00
C1       0.64480    0.25000    0.25000   1.00
C1       0.85520    0.25000    0.25000   1.00
C1       0.75000    0.14480    0.25000   1.00
C1       0.75000    0.25000    0.14480   1.00
O1       0.25000    0.25000    0.25000   1.00
Zn1      0.28280    0.21720    0.21720   1.00
Zn1      0.21720    0.28280    0.21720   1.00
Zn1      0.21720    0.21720    0.28280   1.00
Zn1      0.28280    0.28280    0.28280   1.00
O2       0.27350    0.22650    0.16180   1.00
O2       0.27350    0.16180    0.22650   1.00
O2       0.33820    0.22650    0.22650   1.00
O2       0.22650    0.27350    0.16180   1.00
O2       0.16180    0.27350    0.22650   1.00
O2       0.22650    0.33820    0.22650   1.00
O2       0.22650    0.16180    0.27350   1.00
O2       0.16180    0.22650    0.27350   1.00
O2       0.22650    0.22650    0.33820   1.00
O2       0.33820    0.27350    0.27350   1.00
O2       0.27350    0.33820    0.27350   1.00
O2       0.27350    0.27350    0.33820   1.00
C1       0.25000    0.25000    0.14480   1.00
C1       0.25000    0.14480    0.25000   1.00
C1       0.35520    0.25000    0.25000   1.00
C1       0.14480    0.25000    0.25000   1.00
C1       0.25000    0.35520    0.25000   1.00
C1       0.25000    0.25000    0.35520   1.00
O1       0.75000    0.75000    0.25000   1.00
Zn1      0.78280    0.71720    0.21720   1.00
Zn1      0.71720    0.78280    0.21720   1.00
Zn1      0.71720    0.71720    0.28280   1.00
Zn1      0.78280    0.78280    0.28280   1.00
O2       0.77350    0.72650    0.16180   1.00
O2       0.77350    0.66180    0.22650   1.00
O2       0.83820    0.72650    0.22650   1.00
O2       0.72650    0.77350    0.16180   1.00
O2       0.66180    0.77350    0.22650   1.00
O2       0.72650    0.83820    0.22650   1.00
O2       0.72650    0.66180    0.27350   1.00
O2       0.66180    0.72650    0.27350   1.00
O2       0.72650    0.72650    0.33820   1.00
O2       0.83820    0.77350    0.27350   1.00
O2       0.77350    0.83820    0.27350   1.00
O2       0.77350    0.77350    0.33820   1.00
C1       0.75000    0.75000    0.14480   1.00
C1       0.75000    0.64480    0.25000   1.00
C1       0.85520    0.75000    0.25000   1.00
C1       0.64480    0.75000    0.25000   1.00
C1       0.75000    0.85520    0.25000   1.00
C1       0.75000    0.75000    0.35520   1.00
O1       0.75000    0.25000    0.75000   1.00
Zn1      0.78280    0.21720    0.71720   1.00
Zn1      0.71720    0.28280    0.71720   1.00
Zn1      0.71720    0.21720    0.78280   1.00
Zn1      0.78280    0.28280    0.78280   1.00
O2       0.77350    0.22650    0.66180   1.00
O2       0.77350    0.16180    0.72650   1.00
O2       0.83820    0.22650    0.72650   1.00
O2       0.72650    0.27350    0.66180   1.00
O2       0.66180    0.27350    0.72650   1.00
O2       0.72650    0.33820    0.72650   1.00
O2       0.72650    0.16180    0.77350   1.00
O2       0.66180    0.22650    0.77350   1.00
O2       0.72650    0.22650    0.83820   1.00
O2       0.83820    0.27350    0.77350   1.00
O2       0.77350    0.33820    0.77350   1.00
O2       0.77350    0.27350    0.83820   1.00
C1       0.75000    0.25000    0.64480   1.00
C1       0.75000    0.14480    0.75000   1.00
C1       0.85520    0.25000    0.75000   1.00
C1       0.64480    0.25000    0.75000   1.00
C1       0.75000    0.35520    0.75000   1.00
C1       0.75000    0.25000    0.85520   1.00
O1       0.25000    0.75000    0.75000   1.00
Zn1      0.28280    0.71720    0.71720   1.00
Zn1      0.21720    0.78280    0.71720   1.00
Zn1      0.21720    0.71720    0.78280   1.00
Zn1      0.28280    0.78280    0.78280   1.00
O2       0.27350    0.72650    0.66180   1.00
O2       0.27350    0.66180    0.72650   1.00
O2       0.33820    0.72650    0.72650   1.00
O2       0.22650    0.77350    0.66180   1.00
O2       0.16180    0.77350    0.72650   1.00
O2       0.22650    0.83820    0.72650   1.00
O2       0.22650    0.66180    0.77350   1.00
O2       0.16180    0.72650    0.77350   1.00
O2       0.22650    0.72650    0.83820   1.00
O2       0.33820    0.77350    0.77350   1.00
O2       0.27350    0.83820    0.77350   1.00
O2       0.27350    0.77350    0.83820   1.00
C1       0.25000    0.75000    0.64480   1.00
C1       0.25000    0.64480    0.75000   1.00
C1       0.35520    0.75000    0.75000   1.00
C1       0.14480    0.75000    0.75000   1.00
C1       0.25000    0.85520    0.75000   1.00
C1       0.25000    0.75000    0.85520   1.00
O1       0.91500    0.91500    0.91500   1.00
Zn1      0.88220    0.94780    0.94780   1.00
Zn1      0.94780    0.88220    0.94780   1.00
Zn1      0.94780    0.94780    0.88220   1.00
Zn1      0.88220    0.88220    0.88220   1.00
O2       0.89150    0.93850    1.00320   1.00
O2       0.89150    1.00320    0.93850   1.00
O2       0.82680    0.93850    0.93850   1.00
O2       0.93850    0.89150    1.00320   1.00
O2       1.00320    0.89150    0.93850   1.00
O2       0.93850    0.82680    0.93850   1.00
O2       0.93850    1.00320    0.89150   1.00
O2       1.00320    0.93850    0.89150   1.00
O2       0.93850    0.93850    0.82680   1.00
O2       0.82680    0.89150    0.89150   1.00
O2       0.89150    0.82680    0.89150   1.00
O2       0.89150    0.89150    0.82680   1.00
C1       0.91500    0.91500    1.02020   1.00
C1       0.91500    1.02020    0.91500   1.00
C1       0.80980    0.91500    0.91500   1.00
C1       1.02020    0.91500    0.91500   1.00
C1       0.91500    0.80980    0.91500   1.00
C1       0.91500    0.91500    0.80980   1.00
O1       0.41500    0.41500    0.91500   1.00
Zn1      0.38220    0.44780    0.94780   1.00
Zn1      0.44780    0.38220    0.94780   1.00
Zn1      0.44780    0.44780    0.88220   1.00
Zn1      0.38220    0.38220    0.88220   1.00
O2       0.39150    0.43850    1.00320   1.00
O2       0.39150    0.50320    0.93850   1.00
O2       0.32680    0.43850    0.93850   1.00
O2       0.43850    0.39150    1.00320   1.00
O2       0.50320    0.39150    0.93850   1.00
O2       0.43850    0.32680    0.93850   1.00
O2       0.43850    0.50320    0.89150   1.00
O2       0.50320    0.43850    0.89150   1.00
O2       0.43850    0.43850    0.82680   1.00
O2       0.32680    0.39150    0.89150   1.00
O2       0.39150    0.32680    0.89150   1.00
O2       0.39150    0.39150    0.82680   1.00
C1       0.41500    0.41500    1.02020   1.00
C1       0.41500    0.52020    0.91500   1.00
C1       0.30980    0.41500    0.91500   1.00
C1       0.52020    0.41500    0.91500   1.00
C1       0.41500    0.30980    0.91500   1.00
C1       0.41500    0.41500    0.80980   1.00
O1       0.41500    0.91500    0.41500   1.00
Zn1      0.38220    0.94780    0.44780   1.00
Zn1      0.44780    0.88220    0.44780   1.00
Zn1      0.44780    0.94780    0.38220   1.00
Zn1      0.38220    0.88220    0.38220   1.00
O2       0.39150    0.93850    0.50320   1.00
O2       0.39150    1.00320    0.43850   1.00
O2       0.32680    0.93850    0.43850   1.00
O2       0.43850    0.89150    0.50320   1.00
O2       0.50320    0.89150    0.43850   1.00
O2       0.43850    0.82680    0.43850   1.00
O2       0.43850    1.00320    0.39150   1.00
O2       0.50320    0.93850    0.39150   1.00
O2       0.43850    0.93850    0.32680   1.00
O2       0.32680    0.89150    0.39150   1.00
O2       0.39150    0.82680    0.39150   1.00
O2       0.39150    0.89150    0.32680   1.00
C1       0.41500    0.91500    0.52020   1.00
C1       0.41500    1.02020    0.41500   1.00
C1       0.30980    0.91500    0.41500   1.00
C1       0.52020    0.91500    0.41500   1.00
C1       0.41500    0.80980    0.41500   1.00
C1       0.41500    0.91500    0.30980   1.00
O1       0.91500    0.41500    0.41500   1.00
Zn1      0.88220    0.44780    0.44780   1.00
Zn1      0.94780    0.38220    0.44780   1.00
Zn1      0.94780    0.44780    0.38220   1.00
Zn1      0.88220    0.38220    0.38220   1.00
O2       0.89150    0.43850    0.50320   1.00
O2       0.89150    0.50320    0.43850   1.00
O2       0.82680    0.43850    0.43850   1.00
O2       0.93850    0.39150    0.50320   1.00
O2       1.00320    0.39150    0.43850   1.00
O2       0.93850    0.32680    0.43850   1.00
O2       0.93850    0.50320    0.39150   1.00
O2       1.00320    0.43850    0.39150   1.00
O2       0.93850    0.43850    0.32680   1.00
O2       0.82680    0.39150    0.39150   1.00
O2       0.89150    0.32680    0.39150   1.00
O2       0.89150    0.39150    0.32680   1.00
C1       0.91500    0.41500    0.52020   1.00
C1       0.91500    0.52020    0.41500   1.00
C1       0.80980    0.41500    0.41500   1.00
C1       1.02020    0.41500    0.41500   1.00
C1       0.91500    0.30980    0.41500   1.00
C1       0.91500    0.41500    0.30980   1.00
O1       0.41500    0.41500    0.41500   1.00
Zn1      0.44780    0.38220    0.38220   1.00
Zn1      0.38220    0.44780    0.38220   1.00
Zn1      0.38220    0.38220    0.44780   1.00
Zn1      0.44780    0.44780    0.44780   1.00
O2       0.43850    0.39150    0.32680   1.00
O2       0.43850    0.32680    0.39150   1.00
O2       0.50320    0.39150    0.39150   1.00
O2       0.39150    0.43850    0.32680   1.00
O2       0.32680    0.43850    0.39150   1.00
O2       0.39150    0.50320    0.39150   1.00
O2       0.39150    0.32680    0.43850   1.00
O2       0.32680    0.39150    0.43850   1.00
O2       0.39150    0.39150    0.50320   1.00
O2       0.50320    0.43850    0.43850   1.00
O2       0.43850    0.50320    0.43850   1.00
O2       0.43850    0.43850    0.50320   1.00
C1       0.41500    0.41500    0.30980   1.00
C1       0.41500    0.30980    0.41500   1.00
C1       0.52020    0.41500    0.41500   1.00
C1       0.30980    0.41500    0.41500   1.00
C1       0.41500    0.52020    0.41500   1.00
C1       0.41500    0.41500    0.52020   1.00
O1       0.91500    0.91500    0.41500   1.00
Zn1      0.94780    0.88220    0.38220   1.00
Zn1      0.88220    0.94780    0.38220   1.00
Zn1      0.88220    0.88220    0.44780   1.00
Zn1      0.94780    0.94780    0.44780   1.00
O2       0.93850    0.89150    0.32680   1.00
O2       0.93850    0.82680    0.39150   1.00
O2       1.00320    0.89150    0.39150   1.00
O2       0.89150    0.93850    0.32680   1.00
O2       0.82680    0.93850    0.39150   1.00
O2       0.89150    1.00320    0.39150   1.00
O2       0.89150    0.82680    0.43850   1.00
O2       0.82680    0.89150    0.43850   1.00
O2       0.89150    0.89150    0.50320   1.00
O2       1.00320    0.93850    0.43850   1.00
O2       0.93850    1.00320    0.43850   1.00
O2       0.93850    0.93850    0.50320   1.00
C1       0.91500    0.91500    0.30980   1.00
C1       0.91500    0.80980    0.41500   1.00
C1       1.02020    0.91500    0.41500   1.00
C1       0.80980    0.91500    0.41500   1.00
C1       0.91500    1.02020    0.41500   1.00
C1       0.91500    0.91500    0.52020   1.00
O1       0.91500    0.41500    0.91500   1.00
Zn1      0.94780    0.38220    0.88220   1.00
Zn1      0.88220    0.44780    0.88220   1.00
Zn1      0.88220    0.38220    0.94780   1.00
Zn1      0.94780    0.44780    0.94780   1.00
O2       0.93850    0.39150    0.82680   1.00
O2       0.93850    0.32680    0.89150   1.00
O2       1.00320    0.39150    0.89150   1.00
O2       0.89150    0.43850    0.82680   1.00
O2       0.82680    0.43850    0.89150   1.00
O2       0.89150    0.50320    0.89150   1.00
O2       0.89150    0.32680    0.93850   1.00
O2       0.82680    0.39150    0.93850   1.00
O2       0.89150    0.39150    1.00320   1.00
O2       1.00320    0.43850    0.93850   1.00
O2       0.93850    0.50320    0.93850   1.00
O2       0.93850    0.43850    1.00320   1.00
C1       0.91500    0.41500    0.80980   1.00
C1       0.91500    0.30980    0.91500   1.00
C1       1.02020    0.41500    0.91500   1.00
C1       0.80980    0.41500    0.91500   1.00
C1       0.91500    0.52020    0.91500   1.00
C1       0.91500    0.41500    1.02020   1.00
O1       0.41500    0.91500    0.91500   1.00
Zn1      0.44780    0.88220    0.88220   1.00
Zn1      0.38220    0.94780    0.88220   1.00
Zn1      0.38220    0.88220    0.94780   1.00
Zn1      0.44780    0.94780    0.94780   1.00
O2       0.43850    0.89150    0.82680   1.00
O2       0.43850    0.82680    0.89150   1.00
O2       0.50320    0.89150    0.89150   1.00
O2       0.39150    0.93850    0.82680   1.00
O2       0.32680    0.93850    0.89150   1.00
O2       0.39150    1.00320    0.89150   1.00
O2       0.39150    0.82680    0.93850   1.00
O2       0.32680    0.89150    0.93850   1.00
O2       0.39150    0.89150    1.00320   1.00
O2       0.50320    0.93850    0.93850   1.00
O2       0.43850    1.00320    0.93850   1.00
O2       0.43850    0.93850    1.00320   1.00
C1       0.41500    0.91500    0.80980   1.00
C1       0.41500    0.80980    0.91500   1.00
C1       0.52020    0.91500    0.91500   1.00
C1       0.30980    0.91500    0.91500   1.00
C1       0.41500    1.02020    0.91500   1.00
C1       0.41500    0.91500    1.02020   1.00
C2       0.74928    0.75290    0.89757   1.00
C3a      0.75898    0.78644    0.91884   1.00
H1       0.76624    0.81325    0.90369   1.00
C3a      0.73987    0.71820    0.91704   1.00
H1       0.73238    0.69229    0.90051   1.00
C3b      0.75937    0.78567    0.95938   1.00
C5       0.76993    0.82226    0.98144   1.00
H2       0.79602    0.81697    0.99984   1.00
H2       0.77655    0.84700    0.96161   1.00
H2       0.74539    0.83113    1.00060   1.00
C3b      0.74005    0.71668    0.95756   1.00
C5       0.72979    0.67890    0.97767   1.00
H2       0.70396    0.68313    0.99670   1.00
H2       0.72288    0.65532    0.95655   1.00
H2       0.75458    0.66897    0.99594   1.00
C4       0.74985    0.75060    0.97873   1.00
C4       0.75015    0.74940    1.02127   1.00
C3b      0.78480    0.73918    1.04101   1.00
C5       0.82185    0.72937    1.01937   1.00
H2       0.83112    0.75456    1.00129   1.00
H2       0.84616    0.72204    1.03949   1.00
H2       0.81695    0.70395    0.99995   1.00
C3b      0.71578    0.75847    1.04204   1.00
C5       0.67844    0.76947    1.02152   1.00
H2       0.66890    0.74534    1.00217   1.00
H2       0.65441    0.77565    1.04235   1.00
H2       0.68307    0.79595    1.00350   1.00
C3a      0.78471    0.73813    1.08155   1.00
H1       0.81119    0.73031    1.09700   1.00
C3a      0.71645    0.75722    1.08257   1.00
H1       0.69019    0.76414    1.09881   1.00
C2       0.75072    0.74710    1.10243   1.00
C2       0.75290    0.89757    0.74928   1.00
C3a      0.78644    0.91884    0.75898   1.00
H1       0.81325    0.90369    0.76624   1.00
C3a      0.71820    0.91704    0.73987   1.00
H1       0.69229    0.90051    0.73238   1.00
C3b      0.78567    0.95938    0.75937   1.00
C5       0.82226    0.98144    0.76993   1.00
H2       0.81697    0.99984    0.79602   1.00
H2       0.84700    0.96161    0.77655   1.00
H2       0.83113    1.00060    0.74539   1.00
C3b      0.71668    0.95756    0.74005   1.00
C5       0.67890    0.97767    0.72979   1.00
H2       0.68313    0.99670    0.70396   1.00
H2       0.65532    0.95655    0.72288   1.00
H2       0.66897    0.99594    0.75458   1.00
C4       0.75060    0.97873    0.74985   1.00
C4       0.74940    1.02127    0.75015   1.00
C3b      0.73918    1.04101    0.78480   1.00
C5       0.72937    1.01937    0.82185   1.00
H2       0.75456    1.00129    0.83112   1.00
H2       0.72204    1.03949    0.84616   1.00
H2       0.70395    0.99995    0.81695   1.00
C3b      0.75847    1.04204    0.71578   1.00
C5       0.76947    1.02152    0.67844   1.00
H2       0.74534    1.00217    0.66890   1.00
H2       0.77565    1.04235    0.65441   1.00
H2       0.79595    1.00350    0.68307   1.00
C3a      0.73813    1.08155    0.78471   1.00
H1       0.73031    1.09700    0.81119   1.00
C3a      0.75722    1.08257    0.71645   1.00
H1       0.76414    1.09881    0.69019   1.00
C2       0.74710    1.10243    0.75072   1.00
C2       0.60243    0.74928    0.74710   1.00
C3a      0.58116    0.75898    0.71356   1.00
H1       0.59631    0.76624    0.68675   1.00
C3a      0.58296    0.73987    0.78180   1.00
H1       0.59949    0.73238    0.80771   1.00
C3b      0.54062    0.75937    0.71433   1.00
C5       0.51856    0.76993    0.67774   1.00
H2       0.50016    0.79602    0.68303   1.00
H2       0.53839    0.77655    0.65300   1.00
H2       0.49940    0.74539    0.66887   1.00
C3b      0.54244    0.74005    0.78332   1.00
C5       0.52233    0.72979    0.82110   1.00
H2       0.50330    0.70396    0.81687   1.00
H2       0.54345    0.72288    0.84468   1.00
H2       0.50406    0.75458    0.83103   1.00
C4       0.52127    0.74985    0.74940   1.00
C4       0.47873    0.75015    0.75060   1.00
C3b      0.45899    0.78480    0.76082   1.00
C5       0.48063    0.82185    0.77063   1.00
H2       0.49871    0.83112    0.74544   1.00
H2       0.46051    0.84616    0.77796   1.00
H2       0.50005    0.81695    0.79605   1.00
C3b      0.45796    0.71578    0.74153   1.00
C5       0.47848    0.67844    0.73053   1.00
H2       0.49783    0.66890    0.75466   1.00
H2       0.45765    0.65441    0.72435   1.00
H2       0.49650    0.68307    0.70405   1.00
C3a      0.41845    0.78471    0.76187   1.00
H1       0.40300    0.81119    0.76969   1.00
C3a      0.41743    0.71645    0.74278   1.00
H1       0.40119    0.69019    0.73586   1.00
C2       0.39757    0.75072    0.75290   1.00
C2       0.89757    0.74928    0.75290   1.00
C3a      0.91884    0.75898    0.78644   1.00
H1       0.90369    0.76624    0.81325   1.00
C3a      0.91704    0.73987    0.71820   1.00
H1       0.90051    0.73238    0.69229   1.00
C3b      0.95938    0.75937    0.78567   1.00
C5       0.98144    0.76993    0.82226   1.00
H2       0.99984    0.79602    0.81697   1.00
H2       0.96161    0.77655    0.84700   1.00
H2       1.00060    0.74539    0.83113   1.00
C3b      0.95756    0.74005    0.71668   1.00
C5       0.97767    0.72979    0.67890   1.00
H2       0.99670    0.70396    0.68313   1.00
H2       0.95655    0.72288    0.65532   1.00
H2       0.99594    0.75458    0.66897   1.00
C4       0.97873    0.74985    0.75060   1.00
C4       1.02127    0.75015    0.74940   1.00
C3b      1.04101    0.78480    0.73918   1.00
C5       1.01937    0.82185    0.72937   1.00
H2       1.00129    0.83112    0.75456   1.00
H2       1.03949    0.84616    0.72204   1.00
H2       0.99995    0.81695    0.70395   1.00
C3b      1.04204    0.71578    0.75847   1.00
C5       1.02152    0.67844    0.76947   1.00
H2       1.00217    0.66890    0.74534   1.00
H2       1.04235    0.65441    0.77565   1.00
H2       1.00350    0.68307    0.79595   1.00
C3a      1.08155    0.78471    0.73813   1.00
H1       1.09700    0.81119    0.73031   1.00
C3a      1.08257    0.71645    0.75722   1.00
H1       1.09881    0.69019    0.76414   1.00
C2       1.10243    0.75072    0.74710   1.00
C2       0.74710    0.60243    0.74928   1.00
C3a      0.71356    0.58116    0.75898   1.00
H1       0.68675    0.59631    0.76624   1.00
C3a      0.78180    0.58296    0.73987   1.00
H1       0.80771    0.59949    0.73238   1.00
C3b      0.71433    0.54062    0.75937   1.00
C5       0.67774    0.51856    0.76993   1.00
H2       0.68303    0.50016    0.79602   1.00
H2       0.65300    0.53839    0.77655   1.00
H2       0.66887    0.49940    0.74539   1.00
C3b      0.78332    0.54244    0.74005   1.00
C5       0.82110    0.52233    0.72979   1.00
H2       0.81687    0.50330    0.70396   1.00
H2       0.84468    0.54345    0.72288   1.00
H2       0.83103    0.50406    0.75458   1.00
C4       0.74940    0.52127    0.74985   1.00
C4       0.75060    0.47873    0.75015   1.00
C3b      0.76082    0.45899    0.78480   1.00
C5       0.77063    0.48063    0.82185   1.00
H2       0.74544    0.49871    0.83112   1.00
H2       0.77796    0.46051    0.84616   1.00
H2       0.79605    0.50005    0.81695   1.00
C3b      0.74153    0.45796    0.71578   1.00
C5       0.73053    0.47848    0.67844   1.00
H2       0.75466    0.49783    0.66890   1.00
H2       0.72435    0.45765    0.65441   1.00
H2       0.70405    0.49650    0.68307   1.00
C3a      0.76187    0.41845    0.78471   1.00
H1       0.76969    0.40300    0.81119   1.00
C3a      0.74278    0.41743    0.71645   1.00
H1       0.73586    0.40119    0.69019   1.00
C2       0.75290    0.39757    0.75072   1.00
C2       0.74928    0.74710    0.60243   1.00
C3a      0.75898    0.71356    0.58116   1.00
H1       0.76624    0.68675    0.59631   1.00
C3a      0.73987    0.78180    0.58296   1.00
H1       0.73238    0.80771    0.59949   1.00
C3b      0.75937    0.71433    0.54062   1.00
C5       0.76993    0.67774    0.51856   1.00
H2       0.79602    0.68303    0.50016   1.00
H2       0.77655    0.65300    0.53839   1.00
H2       0.74539    0.66887    0.49940   1.00
C3b      0.74005    0.78332    0.54244   1.00
C5       0.72979    0.82110    0.52233   1.00
H2       0.70396    0.81687    0.50330   1.00
H2       0.72288    0.84468    0.54345   1.00
H2       0.75458    0.83103    0.50406   1.00
C4       0.74985    0.74940    0.52127   1.00
C4       0.75015    0.75060    0.47873   1.00
C3b      0.78480    0.76082    0.45899   1.00
C5       0.82185    0.77063    0.48063   1.00
H2       0.83112    0.74544    0.49871   1.00
H2       0.84616    0.77796    0.46051   1.00
H2       0.81695    0.79605    0.50005   1.00
C3b      0.71578    0.74153    0.45796   1.00
C5       0.67844    0.73053    0.47848   1.00
H2       0.66890    0.75466    0.49783   1.00
H2       0.65441    0.72435    0.45765   1.00
H2       0.68307    0.70405    0.49650   1.00
C3a      0.78471    0.76187    0.41845   1.00
H1       0.81119    0.76969    0.40300   1.00
C3a      0.71645    0.74278    0.41743   1.00
H1       0.69019    0.73586    0.40119   1.00
C2       0.75072    0.75290    0.39757   1.00
C2       0.24928    0.25290    0.89757   1.00
C3a      0.25898    0.28644    0.91884   1.00
H1       0.26624    0.31325    0.90369   1.00
C3a      0.23987    0.21820    0.91704   1.00
H1       0.23238    0.19229    0.90051   1.00
C3b      0.25937    0.28567    0.95938   1.00
C5       0.26993    0.32226    0.98144   1.00
H2       0.29602    0.31697    0.99984   1.00
H2       0.27655    0.34700    0.96161   1.00
H2       0.24539    0.33113    1.00060   1.00
C3b      0.24005    0.21668    0.95756   1.00
C5       0.22979    0.17890    0.97767   1.00
H2       0.20396    0.18313    0.99670   1.00
H2       0.22288    0.15532    0.95655   1.00
H2       0.25458    0.16897    0.99594   1.00
C4       0.24985    0.25060    0.97873   1.00
C4       0.25015    0.24940    1.02127   1.00
C3b      0.28480    0.23918    1.04101   1.00
C5       0.32185    0.22937    1.01937   1.00
H2       0.33112    0.25456    1.00129   1.00
H2       0.34616    0.22204    1.03949   1.00
H2       0.31695    0.20395    0.99995   1.00
C3b      0.21578    0.25847    1.04204   1.00
C5       0.17844    0.26947    1.02152   1.00
H2       0.16890    0.24534    1.00217   1.00
H2       0.15441    0.27565    1.04235   1.00
H2       0.18307    0.29595    1.00350   1.00
C3a      0.28471    0.23813    1.08155   1.00
H1       0.31119    0.23031    1.09700   1.00
C3a      0.21645    0.25722    1.08257   1.00
H1       0.19019    0.26414    1.09881   1.00
C2       0.25072    0.24710    1.10243   1.00
C2       0.25290    0.39757    0.74928   1.00
C3a      0.28644    0.41884    0.75898   1.00
H1       0.31325    0.40369    0.76624   1.00
C3a      0.21820    0.41704    0.73987   1.00
H1       0.19229    0.40051    0.73238   1.00
C3b      0.28567    0.45938    0.75937   1.00
C5       0.32226    0.48144    0.76993   1.00
H2       0.31697    0.49984    0.79602   1.00
H2       0.34700    0.46161    0.77655   1.00
H2       0.33113    0.50060    0.74539   1.00
C3b      0.21668    0.45756    0.74005   1.00
C5       0.17890    0.47767    0.72979   1.00
H2       0.18313    0.49670    0.70396   1.00
H2       0.15532    0.45655    0.72288   1.00
H2       0.16897    0.49594    0.75458   1.00
C4       0.25060    0.47873    0.74985   1.00
C4       0.24940    0.52127    0.75015   1.00
C3b      0.23918    0.54101    0.78480   1.00
C5       0.22937    0.51937    0.82185   1.00
H2       0.25456    0.50129    0.83112   1.00
H2       0.22204    0.53949    0.84616   1.00
H2       0.20395    0.49995    0.81695   1.00
C3b      0.25847    0.54204    0.71578   1.00
C5       0.26947    0.52152    0.67844   1.00
H2       0.24534    0.50217    0.66890   1.00
H2       0.27565    0.54235    0.65441   1.00
H2       0.29595    0.50350    0.68307   1.00
C3a      0.23813    0.58155    0.78471   1.00
H1       0.23031    0.59700    0.81119   1.00
C3a      0.25722    0.58257    0.71645   1.00
H1       0.26414    0.59881    0.69019   1.00
C2       0.24710    0.60243    0.75072   1.00
C2       0.10243    0.24928    0.74710   1.00
C3a      0.08116    0.25898    0.71356   1.00
H1       0.09631    0.26624    0.68675   1.00
C3a      0.08296    0.23987    0.78180   1.00
H1       0.09949    0.23238    0.80771   1.00
C3b      0.04062    0.25937    0.71433   1.00
C5       0.01856    0.26993    0.67774   1.00
H2       0.00016    0.29602    0.68303   1.00
H2       0.03839    0.27655    0.65300   1.00
H2       -0.00060   0.24539    0.66887   1.00
C3b      0.04244    0.24005    0.78332   1.00
C5       0.02233    0.22979    0.82110   1.00
H2       0.00330    0.20396    0.81687   1.00
H2       0.04345    0.22288    0.84468   1.00
H2       0.00406    0.25458    0.83103   1.00
C4       0.02127    0.24985    0.74940   1.00
C4       -0.02127   0.25015    0.75060   1.00
C3b      -0.04101   0.28480    0.76082   1.00
C5       -0.01937   0.32185    0.77063   1.00
H2       -0.00129   0.33112    0.74544   1.00
H2       -0.03949   0.34616    0.77796   1.00
H2       0.00005    0.31695    0.79605   1.00
C3b      -0.04204   0.21578    0.74153   1.00
C5       -0.02152   0.17844    0.73053   1.00
H2       -0.00217   0.16890    0.75466   1.00
H2       -0.04235   0.15441    0.72435   1.00
H2       -0.00350   0.18307    0.70405   1.00
C3a      -0.08155   0.28471    0.76187   1.00
H1       -0.09700   0.31119    0.76969   1.00
C3a      -0.08257   0.21645    0.74278   1.00
H1       -0.09881   0.19019    0.73586   1.00
C2       -0.10243   0.25072    0.75290   1.00
C2       0.39757    0.24928    0.75290   1.00
C3a      0.41884    0.25898    0.78644   1.00
H1       0.40369    0.26624    0.81325   1.00
C3a      0.41704    0.23987    0.71820   1.00
H1       0.40051    0.23238    0.69229   1.00
C3b      0.45938    0.25937    0.78567   1.00
C5       0.48144    0.26993    0.82226   1.00
H2       0.49984    0.29602    0.81697   1.00
H2       0.46161    0.27655    0.84700   1.00
H2       0.50060    0.24539    0.83113   1.00
C3b      0.45756    0.24005    0.71668   1.00
C5       0.47767    0.22979    0.67890   1.00
H2       0.49670    0.20396    0.68313   1.00
H2       0.45655    0.22288    0.65532   1.00
H2       0.49594    0.25458    0.66897   1.00
C4       0.47873    0.24985    0.75060   1.00
C4       0.52127    0.25015    0.74940   1.00
C3b      0.54101    0.28480    0.73918   1.00
C5       0.51937    0.32185    0.72937   1.00
H2       0.50129    0.33112    0.75456   1.00
H2       0.53949    0.34616    0.72204   1.00
H2       0.49995    0.31695    0.70395   1.00
C3b      0.54204    0.21578    0.75847   1.00
C5       0.52152    0.17844    0.76947   1.00
H2       0.50217    0.16890    0.74534   1.00
H2       0.54235    0.15441    0.77565   1.00
H2       0.50350    0.18307    0.79595   1.00
C3a      0.58155    0.28471    0.73813   1.00
H1       0.59700    0.31119    0.73031   1.00
C3a      0.58257    0.21645    0.75722   1.00
H1       0.59881    0.19019    0.76414   1.00
C2       0.60243    0.25072    0.74710   1.00
C2       0.24710    0.10243    0.74928   1.00
C3a      0.21356    0.08116    0.75898   1.00
H1       0.18675    0.09631    0.76624   1.00
C3a      0.28180    0.08296    0.73987   1.00
H1       0.30771    0.09949    0.73238   1.00
C3b      0.21433    0.04062    0.75937   1.00
C5       0.17774    0.01856    0.76993   1.00
H2       0.18303    0.00016    0.79602   1.00
H2       0.15300    0.03839    0.77655   1.00
H2       0.16887    -0.00060   0.74539   1.00
C3b      0.28332    0.04244    0.74005   1.00
C5       0.32110    0.02233    0.72979   1.00
H2       0.31687    0.00330    0.70396   1.00
H2       0.34468    0.04345    0.72288   1.00
H2       0.33103    0.00406    0.75458   1.00
C4       0.24940    0.02127    0.74985   1.00
C4       0.25060    -0.02127   0.75015   1.00
C3b      0.26082    -0.04101   0.78480   1.00
C5       0.27063    -0.01937   0.82185   1.00
H2       0.24544    -0.00129   0.83112   1.00
H2       0.27796    -0.03949   0.84616   1.00
H2       0.29605    0.00005    0.81695   1.00
C3b      0.24153    -0.04204   0.71578   1.00
C5       0.23053    -0.02152   0.67844   1.00
H2       0.25466    -0.00217   0.66890   1.00
H2       0.22435    -0.04235   0.65441   1.00
H2       0.20405    -0.00350   0.68307   1.00
C3a      0.26187    -0.08155   0.78471   1.00
H1       0.26969    -0.09700   0.81119   1.00
C3a      0.24278    -0.08257   0.71645   1.00
H1       0.23586    -0.09881   0.69019   1.00
C2       0.25290    -0.10243   0.75072   1.00
C2       0.24928    0.24710    0.60243   1.00
C3a      0.25898    0.21356    0.58116   1.00
H1       0.26624    0.18675    0.59631   1.00
C3a      0.23987    0.28180    0.58296   1.00
H1       0.23238    0.30771    0.59949   1.00
C3b      0.25937    0.21433    0.54062   1.00
C5       0.26993    0.17774    0.51856   1.00
H2       0.29602    0.18303    0.50016   1.00
H2       0.27655    0.15300    0.53839   1.00
H2       0.24539    0.16887    0.49940   1.00
C3b      0.24005    0.28332    0.54244   1.00
C5       0.22979    0.32110    0.52233   1.00
H2       0.20396    0.31687    0.50330   1.00
H2       0.22288    0.34468    0.54345   1.00
H2       0.25458    0.33103    0.50406   1.00
C4       0.24985    0.24940    0.52127   1.00
C4       0.25015    0.25060    0.47873   1.00
C3b      0.28480    0.26082    0.45899   1.00
C5       0.32185    0.27063    0.48063   1.00
H2       0.33112    0.24544    0.49871   1.00
H2       0.34616    0.27796    0.46051   1.00
H2       0.31695    0.29605    0.50005   1.00
C3b      0.21578    0.24153    0.45796   1.00
C5       0.17844    0.23053    0.47848   1.00
H2       0.16890    0.25466    0.49783   1.00
H2       0.15441    0.22435    0.45765   1.00
H2       0.18307    0.20405    0.49650   1.00
C3a      0.28471    0.26187    0.41845   1.00
H1       0.31119    0.26969    0.40300   1.00
C3a      0.21645    0.24278    0.41743   1.00
H1       0.19019    0.23586    0.40119   1.00
C2       0.25072    0.25290    0.39757   1.00
C2       0.24928    0.75290    0.39757   1.00
C3a      0.25898    0.78644    0.41884   1.00
H1       0.26624    0.81325    0.40369   1.00
C3a      0.23987    0.71820    0.41704   1.00
H1       0.23238    0.69229    0.40051   1.00
C3b      0.25937    0.78567    0.45938   1.00
C5       0.26993    0.82226    0.48144   1.00
H2       0.29602    0.81697    0.49984   1.00
H2       0.27655    0.84700    0.46161   1.00
H2       0.24539    0.83113    0.50060   1.00
C3b      0.24005    0.71668    0.45756   1.00
C5       0.22979    0.67890    0.47767   1.00
H2       0.20396    0.68313    0.49670   1.00
H2       0.22288    0.65532    0.45655   1.00
H2       0.25458    0.66897    0.49594   1.00
C4       0.24985    0.75060    0.47873   1.00
C4       0.25015    0.74940    0.52127   1.00
C3b      0.28480    0.73918    0.54101   1.00
C5       0.32185    0.72937    0.51937   1.00
H2       0.33112    0.75456    0.50129   1.00
H2       0.34616    0.72204    0.53949   1.00
H2       0.31695    0.70395    0.49995   1.00
C3b      0.21578    0.75847    0.54204   1.00
C5       0.17844    0.76947    0.52152   1.00
H2       0.16890    0.74534    0.50217   1.00
H2       0.15441    0.77565    0.54235   1.00
H2       0.18307    0.79595    0.50350   1.00
C3a      0.28471    0.73813    0.58155   1.00
H1       0.31119    0.73031    0.59700   1.00
C3a      0.21645    0.75722    0.58257   1.00
H1       0.19019    0.76414    0.59881   1.00
C2       0.25072    0.74710    0.60243   1.00
C2       0.25290    0.89757    0.24928   1.00
C3a      0.28644    0.91884    0.25898   1.00
H1       0.31325    0.90369    0.26624   1.00
C3a      0.21820    0.91704    0.23987   1.00
H1       0.19229    0.90051    0.23238   1.00
C3b      0.28567    0.95938    0.25937   1.00
C5       0.32226    0.98144    0.26993   1.00
H2       0.31697    0.99984    0.29602   1.00
H2       0.34700    0.96161    0.27655   1.00
H2       0.33113    1.00060    0.24539   1.00
C3b      0.21668    0.95756    0.24005   1.00
C5       0.17890    0.97767    0.22979   1.00
H2       0.18313    0.99670    0.20396   1.00
H2       0.15532    0.95655    0.22288   1.00
H2       0.16897    0.99594    0.25458   1.00
C4       0.25060    0.97873    0.24985   1.00
C4       0.24940    1.02127    0.25015   1.00
C3b      0.23918    1.04101    0.28480   1.00
C5       0.22937    1.01937    0.32185   1.00
H2       0.25456    1.00129    0.33112   1.00
H2       0.22204    1.03949    0.34616   1.00
H2       0.20395    0.99995    0.31695   1.00
C3b      0.25847    1.04204    0.21578   1.00
C5       0.26947    1.02152    0.17844   1.00
H2       0.24534    1.00217    0.16890   1.00
H2       0.27565    1.04235    0.15441   1.00
H2       0.29595    1.00350    0.18307   1.00
C3a      0.23813    1.08155    0.28471   1.00
H1       0.23031    1.09700    0.31119   1.00
C3a      0.25722    1.08257    0.21645   1.00
H1       0.26414    1.09881    0.19019   1.00
C2       0.24710    1.10243    0.25072   1.00
C2       0.10243    0.74928    0.24710   1.00
C3a      0.08116    0.75898    0.21356   1.00
H1       0.09631    0.76624    0.18675   1.00
C3a      0.08296    0.73987    0.28180   1.00
H1       0.09949    0.73238    0.30771   1.00
C3b      0.04062    0.75937    0.21433   1.00
C5       0.01856    0.76993    0.17774   1.00
H2       0.00016    0.79602    0.18303   1.00
H2       0.03839    0.77655    0.15300   1.00
H2       -0.00060   0.74539    0.16887   1.00
C3b      0.04244    0.74005    0.28332   1.00
C5       0.02233    0.72979    0.32110   1.00
H2       0.00330    0.70396    0.31687   1.00
H2       0.04345    0.72288    0.34468   1.00
H2       0.00406    0.75458    0.33103   1.00
C4       0.02127    0.74985    0.24940   1.00
C4       -0.02127   0.75015    0.25060   1.00
C3b      -0.04101   0.78480    0.26082   1.00
C5       -0.01937   0.82185    0.27063   1.00
H2       -0.00129   0.83112    0.24544   1.00
H2       -0.03949   0.84616    0.27796   1.00
H2       0.00005    0.81695    0.29605   1.00
C3b      -0.04204   0.71578    0.24153   1.00
C5       -0.02152   0.67844    0.23053   1.00
H2       -0.00217   0.66890    0.25466   1.00
H2       -0.04235   0.65441    0.22435   1.00
H2       -0.00350   0.68307    0.20405   1.00
C3a      -0.08155   0.78471    0.26187   1.00
H1       -0.09700   0.81119    0.26969   1.00
C3a      -0.08257   0.71645    0.24278   1.00
H1       -0.09881   0.69019    0.23586   1.00
C2       -0.10243   0.75072    0.25290   1.00
C2       0.39757    0.74928    0.25290   1.00
C3a      0.41884    0.75898    0.28644   1.00
H1       0.40369    0.76624    0.31325   1.00
C3a      0.41704    0.73987    0.21820   1.00
H1       0.40051    0.73238    0.19229   1.00
C3b      0.45938    0.75937    0.28567   1.00
C5       0.48144    0.76993    0.32226   1.00
H2       0.49984    0.79602    0.31697   1.00
H2       0.46161    0.77655    0.34700   1.00
H2       0.50060    0.74539    0.33113   1.00
C3b      0.45756    0.74005    0.21668   1.00
C5       0.47767    0.72979    0.17890   1.00
H2       0.49670    0.70396    0.18313   1.00
H2       0.45655    0.72288    0.15532   1.00
H2       0.49594    0.75458    0.16897   1.00
C4       0.47873    0.74985    0.25060   1.00
C4       0.52127    0.75015    0.24940   1.00
C3b      0.54101    0.78480    0.23918   1.00
C5       0.51937    0.82185    0.22937   1.00
H2       0.50129    0.83112    0.25456   1.00
H2       0.53949    0.84616    0.22204   1.00
H2       0.49995    0.81695    0.20395   1.00
C3b      0.54204    0.71578    0.25847   1.00
C5       0.52152    0.67844    0.26947   1.00
H2       0.50217    0.66890    0.24534   1.00
H2       0.54235    0.65441    0.27565   1.00
H2       0.50350    0.68307    0.29595   1.00
C3a      0.58155    0.78471    0.23813   1.00
H1       0.59700    0.81119    0.23031   1.00
C3a      0.58257    0.71645    0.25722   1.00
H1       0.59881    0.69019    0.26414   1.00
C2       0.60243    0.75072    0.24710   1.00
C2       0.24710    0.60243    0.24928   1.00
C3a      0.21356    0.58116    0.25898   1.00
H1       0.18675    0.59631    0.26624   1.00
C3a      0.28180    0.58296    0.23987   1.00
H1       0.30771    0.59949    0.23238   1.00
C3b      0.21433    0.54062    0.25937   1.00
C5       0.17774    0.51856    0.26993   1.00
H2       0.18303    0.50016    0.29602   1.00
H2       0.15300    0.53839    0.27655   1.00
H2       0.16887    0.49940    0.24539   1.00
C3b      0.28332    0.54244    0.24005   1.00
C5       0.32110    0.52233    0.22979   1.00
H2       0.31687    0.50330    0.20396   1.00
H2       0.34468    0.54345    0.22288   1.00
H2       0.33103    0.50406    0.25458   1.00
C4       0.24940    0.52127    0.24985   1.00
C4       0.25060    0.47873    0.25015   1.00
C3b      0.26082    0.45899    0.28480   1.00
C5       0.27063    0.48063    0.32185   1.00
H2       0.24544    0.49871    0.33112   1.00
H2       0.27796    0.46051    0.34616   1.00
H2       0.29605    0.50005    0.31695   1.00
C3b      0.24153    0.45796    0.21578   1.00
C5       0.23053    0.47848    0.17844   1.00
H2       0.25466    0.49783    0.16890   1.00
H2       0.22435    0.45765    0.15441   1.00
H2       0.20405    0.49650    0.18307   1.00
C3a      0.26187    0.41845    0.28471   1.00
H1       0.26969    0.40300    0.31119   1.00
C3a      0.24278    0.41743    0.21645   1.00
H1       0.23586    0.40119    0.19019   1.00
C2       0.25290    0.39757    0.25072   1.00
C2       0.24928    0.74710    0.10243   1.00
C3a      0.25898    0.71356    0.08116   1.00
H1       0.26624    0.68675    0.09631   1.00
C3a      0.23987    0.78180    0.08296   1.00
H1       0.23238    0.80771    0.09949   1.00
C3b      0.25937    0.71433    0.04062   1.00
C5       0.26993    0.67774    0.01856   1.00
H2       0.29602    0.68303    0.00016   1.00
H2       0.27655    0.65300    0.03839   1.00
H2       0.24539    0.66887    -0.00060   1.00
C3b      0.24005    0.78332    0.04244   1.00
C5       0.22979    0.82110    0.02233   1.00
H2       0.20396    0.81687    0.00330   1.00
H2       0.22288    0.84468    0.04345   1.00
H2       0.25458    0.83103    0.00406   1.00
C4       0.24985    0.74940    0.02127   1.00
C4       0.25015    0.75060    -0.02127   1.00
C3b      0.28480    0.76082    -0.04101   1.00
C5       0.32185    0.77063    -0.01937   1.00
H2       0.33112    0.74544    -0.00129   1.00
H2       0.34616    0.77796    -0.03949   1.00
H2       0.31695    0.79605    0.00005   1.00
C3b      0.21578    0.74153    -0.04204   1.00
C5       0.17844    0.73053    -0.02152   1.00
H2       0.16890    0.75466    -0.00217   1.00
H2       0.15441    0.72435    -0.04235   1.00
H2       0.18307    0.70405    -0.00350   1.00
C3a      0.28471    0.76187    -0.08155   1.00
H1       0.31119    0.76969    -0.09700   1.00
C3a      0.21645    0.74278    -0.08257   1.00
H1       0.19019    0.73586    -0.09881   1.00
C2       0.25072    0.75290    -0.10243   1.00
C2       0.74928    0.25290    0.39757   1.00
C3a      0.75898    0.28644    0.41884   1.00
H1       0.76624    0.31325    0.40369   1.00
C3a      0.73987    0.21820    0.41704   1.00
H1       0.73238    0.19229    0.40051   1.00
C3b      0.75937    0.28567    0.45938   1.00
C5       0.76993    0.32226    0.48144   1.00
H2       0.79602    0.31697    0.49984   1.00
H2       0.77655    0.34700    0.46161   1.00
H2       0.74539    0.33113    0.50060   1.00
C3b      0.74005    0.21668    0.45756   1.00
C5       0.72979    0.17890    0.47767   1.00
H2       0.70396    0.18313    0.49670   1.00
H2       0.72288    0.15532    0.45655   1.00
H2       0.75458    0.16897    0.49594   1.00
C4       0.74985    0.25060    0.47873   1.00
C4       0.75015    0.24940    0.52127   1.00
C3b      0.78480    0.23918    0.54101   1.00
C5       0.82185    0.22937    0.51937   1.00
H2       0.83112    0.25456    0.50129   1.00
H2       0.84616    0.22204    0.53949   1.00
H2       0.81695    0.20395    0.49995   1.00
C3b      0.71578    0.25847    0.54204   1.00
C5       0.67844    0.26947    0.52152   1.00
H2       0.66890    0.24534    0.50217   1.00
H2       0.65441    0.27565    0.54235   1.00
H2       0.68307    0.29595    0.50350   1.00
C3a      0.78471    0.23813    0.58155   1.00
H1       0.81119    0.23031    0.59700   1.00
C3a      0.71645    0.25722    0.58257   1.00
H1       0.69019    0.26414    0.59881   1.00
C2       0.75072    0.24710    0.60243   1.00
C2       0.75290    0.39757    0.24928   1.00
C3a      0.78644    0.41884    0.25898   1.00
H1       0.81325    0.40369    0.26624   1.00
C3a      0.71820    0.41704    0.23987   1.00
H1       0.69229    0.40051    0.23238   1.00
C3b      0.78567    0.45938    0.25937   1.00
C5       0.82226    0.48144    0.26993   1.00
H2       0.81697    0.49984    0.29602   1.00
H2       0.84700    0.46161    0.27655   1.00
H2       0.83113    0.50060    0.24539   1.00
C3b      0.71668    0.45756    0.24005   1.00
C5       0.67890    0.47767    0.22979   1.00
H2       0.68313    0.49670    0.20396   1.00
H2       0.65532    0.45655    0.22288   1.00
H2       0.66897    0.49594    0.25458   1.00
C4       0.75060    0.47873    0.24985   1.00
C4       0.74940    0.52127    0.25015   1.00
C3b      0.73918    0.54101    0.28480   1.00
C5       0.72937    0.51937    0.32185   1.00
H2       0.75456    0.50129    0.33112   1.00
H2       0.72204    0.53949    0.34616   1.00
H2       0.70395    0.49995    0.31695   1.00
C3b      0.75847    0.54204    0.21578   1.00
C5       0.76947    0.52152    0.17844   1.00
H2       0.74534    0.50217    0.16890   1.00
H2       0.77565    0.54235    0.15441   1.00
H2       0.79595    0.50350    0.18307   1.00
C3a      0.73813    0.58155    0.28471   1.00
H1       0.73031    0.59700    0.31119   1.00
C3a      0.75722    0.58257    0.21645   1.00
H1       0.76414    0.59881    0.19019   1.00
C2       0.74710    0.60243    0.25072   1.00
C2       0.60243    0.24928    0.24710   1.00
C3a      0.58116    0.25898    0.21356   1.00
H1       0.59631    0.26624    0.18675   1.00
C3a      0.58296    0.23987    0.28180   1.00
H1       0.59949    0.23238    0.30771   1.00
C3b      0.54062    0.25937    0.21433   1.00
C5       0.51856    0.26993    0.17774   1.00
H2       0.50016    0.29602    0.18303   1.00
H2       0.53839    0.27655    0.15300   1.00
H2       0.49940    0.24539    0.16887   1.00
C3b      0.54244    0.24005    0.28332   1.00
C5       0.52233    0.22979    0.32110   1.00
H2       0.50330    0.20396    0.31687   1.00
H2       0.54345    0.22288    0.34468   1.00
H2       0.50406    0.25458    0.33103   1.00
C4       0.52127    0.24985    0.24940   1.00
C4       0.47873    0.25015    0.25060   1.00
C3b      0.45899    0.28480    0.26082   1.00
C5       0.48063    0.32185    0.27063   1.00
H2       0.49871    0.33112    0.24544   1.00
H2       0.46051    0.34616    0.27796   1.00
H2       0.50005    0.31695    0.29605   1.00
C3b      0.45796    0.21578    0.24153   1.00
C5       0.47848    0.17844    0.23053   1.00
H2       0.49783    0.16890    0.25466   1.00
H2       0.45765    0.15441    0.22435   1.00
H2       0.49650    0.18307    0.20405   1.00
C3a      0.41845    0.28471    0.26187   1.00
H1       0.40300    0.31119    0.26969   1.00
C3a      0.41743    0.21645    0.24278   1.00
H1       0.40119    0.19019    0.23586   1.00
C2       0.39757    0.25072    0.25290   1.00
C2       0.89757    0.24928    0.25290   1.00
C3a      0.91884    0.25898    0.28644   1.00
H1       0.90369    0.26624    0.31325   1.00
C3a      0.91704    0.23987    0.21820   1.00
H1       0.90051    0.23238    0.19229   1.00
C3b      0.95938    0.25937    0.28567   1.00
C5       0.98144    0.26993    0.32226   1.00
H2       0.99984    0.29602    0.31697   1.00
H2       0.96161    0.27655    0.34700   1.00
H2       1.00060    0.24539    0.33113   1.00
C3b      0.95756    0.24005    0.21668   1.00
C5       0.97767    0.22979    0.17890   1.00
H2       0.99670    0.20396    0.18313   1.00
H2       0.95655    0.22288    0.15532   1.00
H2       0.99594    0.25458    0.16897   1.00
C4       0.97873    0.24985    0.25060   1.00
C4       1.02127    0.25015    0.24940   1.00
C3b      1.04101    0.28480    0.23918   1.00
C5       1.01937    0.32185    0.22937   1.00
H2       1.00129    0.33112    0.25456   1.00
H2       1.03949    0.34616    0.22204   1.00
H2       0.99995    0.31695    0.20395   1.00
C3b      1.04204    0.21578    0.25847   1.00
C5       1.02152    0.17844    0.26947   1.00
H2       1.00217    0.16890    0.24534   1.00
H2       1.04235    0.15441    0.27565   1.00
H2       1.00350    0.18307    0.29595   1.00
C3a      1.08155    0.28471    0.23813   1.00
H1       1.09700    0.31119    0.23031   1.00
C3a      1.08257    0.21645    0.25722   1.00
H1       1.09881    0.19019    0.26414   1.00
C2       1.10243    0.25072    0.24710   1.00
C2       0.74710    0.10243    0.24928   1.00
C3a      0.71356    0.08116    0.25898   1.00
H1       0.68675    0.09631    0.26624   1.00
C3a      0.78180    0.08296    0.23987   1.00
H1       0.80771    0.09949    0.23238   1.00
C3b      0.71433    0.04062    0.25937   1.00
C5       0.67774    0.01856    0.26993   1.00
H2       0.68303    0.00016    0.29602   1.00
H2       0.65300    0.03839    0.27655   1.00
H2       0.66887    -0.00060   0.24539   1.00
C3b      0.78332    0.04244    0.24005   1.00
C5       0.82110    0.02233    0.22979   1.00
H2       0.81687    0.00330    0.20396   1.00
H2       0.84468    0.04345    0.22288   1.00
H2       0.83103    0.00406    0.25458   1.00
C4       0.74940    0.02127    0.24985   1.00
C4       0.75060    -0.02127   0.25015   1.00
C3b      0.76082    -0.04101   0.28480   1.00
C5       0.77063    -0.01937   0.32185   1.00
H2       0.74544    -0.00129   0.33112   1.00
H2       0.77796    -0.03949   0.34616   1.00
H2       0.79605    0.00005    0.31695   1.00
C3b      0.74153    -0.04204   0.21578   1.00
C5       0.73053    -0.02152   0.17844   1.00
H2       0.75466    -0.00217   0.16890   1.00
H2       0.72435    -0.04235   0.15441   1.00
H2       0.70405    -0.00350   0.18307   1.00
C3a      0.76187    -0.08155   0.28471   1.00
H1       0.76969    -0.09700   0.31119   1.00
C3a      0.74278    -0.08257   0.21645   1.00
H1       0.73586    -0.09881   0.19019   1.00
C2       0.75290    -0.10243   0.25072   1.00
C2       0.74928    0.24710    0.10243   1.00
C3a      0.75898    0.21356    0.08116   1.00
H1       0.76624    0.18675    0.09631   1.00
C3a      0.73987    0.28180    0.08296   1.00
H1       0.73238    0.30771    0.09949   1.00
C3b      0.75937    0.21433    0.04062   1.00
C5       0.76993    0.17774    0.01856   1.00
H2       0.79602    0.18303    0.00016   1.00
H2       0.77655    0.15300    0.03839   1.00
H2       0.74539    0.16887    -0.00060   1.00
C3b      0.74005    0.28332    0.04244   1.00
C5       0.72979    0.32110    0.02233   1.00
H2       0.70396    0.31687    0.00330   1.00
H2       0.72288    0.34468    0.04345   1.00
H2       0.75458    0.33103    0.00406   1.00
C4       0.74985    0.24940    0.02127   1.00
C4       0.75015    0.25060    -0.02127   1.00
C3b      0.78480    0.26082    -0.04101   1.00
C5       0.82185    0.27063    -0.01937   1.00
H2       0.83112    0.24544    -0.00129   1.00
H2       0.84616    0.27796    -0.03949   1.00
H2       0.81695    0.29605    0.00005   1.00
C3b      0.71578    0.24153    -0.04204   1.00
C5       0.67844    0.23053    -0.02152   1.00
H2       0.66890    0.25466    -0.00217   1.00
H2       0.65441    0.22435    -0.04235   1.00
H2       0.68307    0.20405    -0.00350   1.00
C3a      0.78471    0.26187    -0.08155   1.00
H1       0.81119    0.26969    -0.09700   1.00
C3a      0.71645    0.24278    -0.08257   1.00
H1       0.69019    0.23586    -0.09881   1.00
C2       0.75072    0.25290    -0.10243   1.00
C2       0.91428    0.91790    1.06257   1.00
C3a      0.92398    0.95144    1.08384   1.00
H1       0.93124    0.97825    1.06869   1.00
C3a      0.90487    0.88320    1.08204   1.00
H1       0.89738    0.85729    1.06551   1.00
C3b      0.92437    0.95067    1.12438   1.00
C5       0.93493    0.98726    1.14644   1.00
H2       0.96102    0.98197    1.16484   1.00
H2       0.94155    1.01200    1.12661   1.00
H2       0.91039    0.99613    1.16560   1.00
C3b      0.90505    0.88168    1.12256   1.00
C5       0.89479    0.84390    1.14267   1.00
H2       0.86896    0.84813    1.16170   1.00
H2       0.88788    0.82032    1.12155   1.00
H2       0.91958    0.83397    1.16094   1.00
C4       0.91485    0.91560    1.14373   1.00
C4       0.91515    0.91440    1.18627   1.00
C3b      0.94980    0.90418    1.20601   1.00
C5       0.98685    0.89437    1.18437   1.00
H2       0.99612    0.91956    1.16629   1.00
H2       1.01116    0.88704    1.20449   1.00
H2       0.98195    0.86895    1.16495   1.00
C3b      0.88078    0.92347    1.20704   1.00
C5       0.84344    0.93447    1.18652   1.00
H2       0.83390    0.91034    1.16717   1.00
H2       0.81941    0.94065    1.20735   1.00
H2       0.84807    0.96095    1.16850   1.00
C3a      0.94971    0.90313    1.24655   1.00
H1       0.97619    0.89531    1.26200   1.00
C3a      0.88145    0.92222    1.24757   1.00
H1       0.85519    0.92914    1.26381   1.00
C2       0.91572    0.91210    1.26743   1.00
C2       0.91790    1.06257    0.91428   1.00
C3a      0.95144    1.08384    0.92398   1.00
H1       0.97825    1.06869    0.93124   1.00
C3a      0.88320    1.08204    0.90487   1.00
H1       0.85729    1.06551    0.89738   1.00
C3b      0.95067    1.12438    0.92437   1.00
C5       0.98726    1.14644    0.93493   1.00
H2       0.98197    1.16484    0.96102   1.00
H2       1.01200    1.12661    0.94155   1.00
H2       0.99613    1.16560    0.91039   1.00
C3b      0.88168    1.12256    0.90505   1.00
C5       0.84390    1.14267    0.89479   1.00
H2       0.84813    1.16170    0.86896   1.00
H2       0.82032    1.12155    0.88788   1.00
H2       0.83397    1.16094    0.91958   1.00
C4       0.91560    1.14373    0.91485   1.00
C4       0.91440    1.18627    0.91515   1.00
C3b      0.90418    1.20601    0.94980   1.00
C5       0.89437    1.18437    0.98685   1.00
H2       0.91956    1.16629    0.99612   1.00
H2       0.88704    1.20449    1.01116   1.00
H2       0.86895    1.16495    0.98195   1.00
C3b      0.92347    1.20704    0.88078   1.00
C5       0.93447    1.18652    0.84344   1.00
H2       0.91034    1.16717    0.83390   1.00
H2       0.94065    1.20735    0.81941   1.00
H2       0.96095    1.16850    0.84807   1.00
C3a      0.90313    1.24655    0.94971   1.00
H1       0.89531    1.26200    0.97619   1.00
C3a      0.92222    1.24757    0.88145   1.00
H1       0.92914    1.26381    0.85519   1.00
C2       0.91210    1.26743    0.91572   1.00
C2       0.76743    0.91428    0.91210   1.00
C3a      0.74616    0.92398    0.87856   1.00
H1       0.76131    0.93124    0.85175   1.00
C3a      0.74796    0.90487    0.94680   1.00
H1       0.76449    0.89738    0.97271   1.00
C3b      0.70562    0.92437    0.87933   1.00
C5       0.68356    0.93493    0.84274   1.00
H2       0.66516    0.96102    0.84803   1.00
H2       0.70339    0.94155    0.81800   1.00
H2       0.66440    0.91039    0.83387   1.00
C3b      0.70744    0.90505    0.94832   1.00
C5       0.68733    0.89479    0.98610   1.00
H2       0.66830    0.86896    0.98187   1.00
H2       0.70845    0.88788    1.00968   1.00
H2       0.66906    0.91958    0.99603   1.00
C4       0.68627    0.91485    0.91440   1.00
C4       0.64373    0.91515    0.91560   1.00
C3b      0.62399    0.94980    0.92582   1.00
C5       0.64563    0.98685    0.93563   1.00
H2       0.66371    0.99612    0.91044   1.00
H2       0.62551    1.01116    0.94296   1.00
H2       0.66505    0.98195    0.96105   1.00
C3b      0.62296    0.88078    0.90653   1.00
C5       0.64348    0.84344    0.89553   1.00
H2       0.66283    0.83390    0.91966   1.00
H2       0.62265    0.81941    0.88935   1.00
H2       0.66150    0.84807    0.86905   1.00
C3a      0.58345    0.94971    0.92687   1.00
H1       0.56800    0.97619    0.93469   1.00
C3a      0.58243    0.88145    0.90778   1.00
H1       0.56619    0.85519    0.90086   1.00
C2       0.56257    0.91572    0.91790   1.00
C2       1.06257    0.91428    0.91790   1.00
C3a      1.08384    0.92398    0.95144   1.00
H1       1.06869    0.93124    0.97825   1.00
C3a      1.08204    0.90487    0.88320   1.00
H1       1.06551    0.89738    0.85729   1.00
C3b      1.12438    0.92437    0.95067   1.00
C5       1.14644    0.93493    0.98726   1.00
H2       1.16484    0.96102    0.98197   1.00
H2       1.12661    0.94155    1.01200   1.00
H2       1.16560    0.91039    0.99613   1.00
C3b      1.12256    0.90505    0.88168   1.00
C5       1.14267    0.89479    0.84390   1.00
H2       1.16170    0.86896    0.84813   1.00
H2       1.12155    0.88788    0.82032   1.00
H2       1.16094    0.91958    0.83397   1.00
C4       1.14373    0.91485    0.91560   1.00
C4       1.18627    0.91515    0.91440   1.00
C3b      1.20601    0.94980    0.90418   1.00
C5       1.18437    0.98685    0.89437   1.00
H2       1.16629    0.99612    0.91956   1.00
H2       1.20449    1.01116    0.88704   1.00
H2       1.16495    0.98195    0.86895   1.00
C3b      1.20704    0.88078    0.92347   1.00
C5       1.18652    0.84344    0.93447   1.00
H2       1.16717    0.83390    0.91034   1.00
H2       1.20735    0.81941    0.94065   1.00
H2       1.16850    0.84807    0.96095   1.00
C3a      1.24655    0.94971    0.90313   1.00
H1       1.26200    0.97619    0.89531   1.00
C3a      1.24757    0.88145    0.92222   1.00
H1       1.26381    0.85519    0.92914   1.00
C2       1.26743    0.91572    0.91210   1.00
C2       0.91210    0.76743    0.91428   1.00
C3a      0.87856    0.74616    0.92398   1.00
H1       0.85175    0.76131    0.93124   1.00
C3a      0.94680    0.74796    0.90487   1.00
H1       0.97271    0.76449    0.89738   1.00
C3b      0.87933    0.70562    0.92437   1.00
C5       0.84274    0.68356    0.93493   1.00
H2       0.84803    0.66516    0.96102   1.00
H2       0.81800    0.70339    0.94155   1.00
H2       0.83387    0.66440    0.91039   1.00
C3b      0.94832    0.70744    0.90505   1.00
C5       0.98610    0.68733    0.89479   1.00
H2       0.98187    0.66830    0.86896   1.00
H2       1.00968    0.70845    0.88788   1.00
H2       0.99603    0.66906    0.91958   1.00
C4       0.91440    0.68627    0.91485   1.00
C4       0.91560    0.64373    0.91515   1.00
C3b      0.92582    0.62399    0.94980   1.00
C5       0.93563    0.64563    0.98685   1.00
H2       0.91044    0.66371    0.99612   1.00
H2       0.94296    0.62551    1.01116   1.00
H2       0.96105    0.66505    0.98195   1.00
C3b      0.90653    0.62296    0.88078   1.00
C5       0.89553    0.64348    0.84344   1.00
H2       0.91966    0.66283    0.83390   1.00
H2       0.88935    0.62265    0.81941   1.00
H2       0.86905    0.66150    0.84807   1.00
C3a      0.92687    0.58345    0.94971   1.00
H1       0.93469    0.56800    0.97619   1.00
C3a      0.90778    0.58243    0.88145   1.00
H1       0.90086    0.56619    0.85519   1.00
C2       0.91790    0.56257    0.91572   1.00
C2       0.91428    0.91210    0.76743   1.00
C3a      0.92398    0.87856    0.74616   1.00
H1       0.93124    0.85175    0.76131   1.00
C3a      0.90487    0.94680    0.74796   1.00
H1       0.89738    0.97271    0.76449   1.00
C3b      0.92437    0.87933    0.70562   1.00
C5       0.93493    0.84274    0.68356   1.00
H2       0.96102    0.84803    0.66516   1.00
H2       0.94155    0.81800    0.70339   1.00
H2       0.91039    0.83387    0.66440   1.00
C3b      0.90505    0.94832    0.70744   1.00
C5       0.89479    0.98610    0.68733   1.00
H2       0.86896    0.98187    0.66830   1.00
H2       0.88788    1.00968    0.70845   1.00
H2       0.91958    0.99603    0.66906   1.00
C4       0.91485    0.91440    0.68627   1.00
C4       0.91515    0.91560    0.64373   1.00
C3b      0.94980    0.92582    0.62399   1.00
C5       0.98685    0.93563    0.64563   1.00
H2       0.99612    0.91044    0.66371   1.00
H2       1.01116    0.94296    0.62551   1.00
H2       0.98195    0.96105    0.66505   1.00
C3b      0.88078    0.90653    0.62296   1.00
C5       0.84344    0.89553    0.64348   1.00
H2       0.83390    0.91966    0.66283   1.00
H2       0.81941    0.88935    0.62265   1.00
H2       0.84807    0.86905    0.66150   1.00
C3a      0.94971    0.92687    0.58345   1.00
H1       0.97619    0.93469    0.56800   1.00
C3a      0.88145    0.90778    0.58243   1.00
H1       0.85519    0.90086    0.56619   1.00
C2       0.91572    0.91790    0.56257   1.00
C2       0.41428    0.41790    1.06257   1.00
C3a      0.42398    0.45144    1.08384   1.00
H1       0.43124    0.47825    1.06869   1.00
C3a      0.40487    0.38320    1.08204   1.00
H1       0.39738    0.35729    1.06551   1.00
C3b      0.42437    0.45067    1.12438   1.00
C5       0.43493    0.48726    1.14644   1.00
H2       0.46102    0.48197    1.16484   1.00
H2       0.44155    0.51200    1.12661   1.00
H2       0.41039    0.49613    1.16560   1.00
C3b      0.40505    0.38168    1.12256   1.00
C5       0.39479    0.34390    1.14267   1.00
H2       0.36896    0.34813    1.16170   1.00
H2       0.38788    0.32032    1.12155   1.00
H2       0.41958    0.33397    1.16094   1.00
C4       0.41485    0.41560    1.14373   1.00
C4       0.41515    0.41440    1.18627   1.00
C3b      0.44980    0.40418    1.20601   1.00
C5       0.48685    0.39437    1.18437   1.00
H2       0.49612    0.41956    1.16629   1.00
H2       0.51116    0.38704    1.20449   1.00
H2       0.48195    0.36895    1.16495   1.00
C3b      0.38078    0.42347    1.20704   1.00
C5       0.34344    0.43447    1.18652   1.00
H2       0.33390    0.41034    1.16717   1.00
H2       0.31941    0.44065    1.20735   1.00
H2       0.34807    0.46095    1.16850   1.00
C3a      0.44971    0.40313    1.24655   1.00
H1       0.47619    0.39531    1.26200   1.00
C3a      0.38145    0.42222    1.24757   1.00
H1       0.35519    0.42914    1.26381   1.00
C2       0.41572    0.41210    1.26743   1.00
C2       0.41790    0.56257    0.91428   1.00
C3a      0.45144    0.58384    0.92398   1.00
H1       0.47825    0.56869    0.93124   1.00
C3a      0.38320    0.58204    0.90487   1.00
H1       0.35729    0.56551    0.89738   1.00
C3b      0.45067    0.62438    0.92437   1.00
C5       0.48726    0.64644    0.93493   1.00
H2       0.48197    0.66484    0.96102   1.00
H2       0.51200    0.62661    0.94155   1.00
H2       0.49613    0.66560    0.91039   1.00
C3b      0.38168    0.62256    0.90505   1.00
C5       0.34390    0.64267    0.89479   1.00
H2       0.34813    0.66170    0.86896   1.00
H2       0.32032    0.62155    0.88788   1.00
H2       0.33397    0.66094    0.91958   1.00
C4       0.41560    0.64373    0.91485   1.00
C4       0.41440    0.68627    0.91515   1.00
C3b      0.40418    0.70601    0.94980   1.00
C5       0.39437    0.68437    0.98685   1.00
H2       0.41956    0.66629    0.99612   1.00
H2       0.38704    0.70449    1.01116   1.00
H2       0.36895    0.66495    0.98195   1.00
C3b      0.42347    0.70704    0.88078   1.00
C5       0.43447    0.68652    0.84344   1.00
H2       0.41034    0.66717    0.83390   1.00
H2       0.44065    0.70735    0.81941   1.00
H2       0.46095    0.66850    0.84807   1.00
C3a      0.40313    0.74655    0.94971   1.00
H1       0.39531    0.76200    0.97619   1.00
C3a      0.42222    0.74757    0.88145   1.00
H1       0.42914    0.76381    0.85519   1.00
C2       0.41210    0.76743    0.91572   1.00
C2       0.26743    0.41428    0.91210   1.00
C3a      0.24616    0.42398    0.87856   1.00
H1       0.26131    0.43124    0.85175   1.00
C3a      0.24796    0.40487    0.94680   1.00
H1       0.26449    0.39738    0.97271   1.00
C3b      0.20562    0.42437    0.87933   1.00
C5       0.18356    0.43493    0.84274   1.00
H2       0.16516    0.46102    0.84803   1.00
H2       0.20339    0.44155    0.81800   1.00
H2       0.16440    0.41039    0.83387   1.00
C3b      0.20744    0.40505    0.94832   1.00
C5       0.18733    0.39479    0.98610   1.00
H2       0.16830    0.36896    0.98187   1.00
H2       0.20845    0.38788    1.00968   1.00
H2       0.16906    0.41958    0.99603   1.00
C4       0.18627    0.41485    0.91440   1.00
C4       0.14373    0.41515    0.91560   1.00
C3b      0.12399    0.44980    0.92582   1.00
C5       0.14563    0.48685    0.93563   1.00
H2       0.16371    0.49612    0.91044   1.00
H2       0.12551    0.51116    0.94296   1.00
H2       0.16505    0.48195    0.96105   1.00
C3b      0.12296    0.38078    0.90653   1.00
C5       0.14348    0.34344    0.89553   1.00
H2       0.16283    0.33390    0.91966   1.00
H2       0.12265    0.31941    0.88935   1.00
H2       0.16150    0.34807    0.86905   1.00
C3a      0.08345    0.44971    0.92687   1.00
H1       0.06800    0.47619    0.93469   1.00
C3a      0.08243    0.38145    0.90778   1.00
H1       0.06619    0.35519    0.90086   1.00
C2       0.06257    0.41572    0.91790   1.00
C2       0.56257    0.41428    0.91790   1.00
C3a      0.58384    0.42398    0.95144   1.00
H1       0.56869    0.43124    0.97825   1.00
C3a      0.58204    0.40487    0.88320   1.00
H1       0.56551    0.39738    0.85729   1.00
C3b      0.62438    0.42437    0.95067   1.00
C5       0.64644    0.43493    0.98726   1.00
H2       0.66484    0.46102    0.98197   1.00
H2       0.62661    0.44155    1.01200   1.00
H2       0.66560    0.41039    0.99613   1.00
C3b      0.62256    0.40505    0.88168   1.00
C5       0.64267    0.39479    0.84390   1.00
H2       0.66170    0.36896    0.84813   1.00
H2       0.62155    0.38788    0.82032   1.00
H2       0.66094    0.41958    0.83397   1.00
C4       0.64373    0.41485    0.91560   1.00
C4       0.68627    0.41515    0.91440   1.00
C3b      0.70601    0.44980    0.90418   1.00
C5       0.68437    0.48685    0.89437   1.00
H2       0.66629    0.49612    0.91956   1.00
H2       0.70449    0.51116    0.88704   1.00
H2       0.66495    0.48195    0.86895   1.00
C3b      0.70704    0.38078    0.92347   1.00
C5       0.68652    0.34344    0.93447   1.00
H2       0.66717    0.33390    0.91034   1.00
H2       0.70735    0.31941    0.94065   1.00
H2       0.66850    0.34807    0.96095   1.00
C3a      0.74655    0.44971    0.90313   1.00
H1       0.76200    0.47619    0.89531   1.00
C3a      0.74757    0.38145    0.92222   1.00
H1       0.76381    0.35519    0.92914   1.00
C2       0.76743    0.41572    0.91210   1.00
C2       0.41210    0.26743    0.91428   1.00
C3a      0.37856    0.24616    0.92398   1.00
H1       0.35175    0.26131    0.93124   1.00
C3a      0.44680    0.24796    0.90487   1.00
H1       0.47271    0.26449    0.89738   1.00
C3b      0.37933    0.20562    0.92437   1.00
C5       0.34274    0.18356    0.93493   1.00
H2       0.34803    0.16516    0.96102   1.00
H2       0.31800    0.20339    0.94155   1.00
H2       0.33387    0.16440    0.91039   1.00
C3b      0.44832    0.20744    0.90505   1.00
C5       0.48610    0.18733    0.89479   1.00
H2       0.48187    0.16830    0.86896   1.00
H2       0.50968    0.20845    0.88788   1.00
H2       0.49603    0.16906    0.91958   1.00
C4       0.41440    0.18627    0.91485   1.00
C4       0.41560    0.14373    0.91515   1.00
C3b      0.42582    0.12399    0.94980   1.00
C5       0.43563    0.14563    0.98685   1.00
H2       0.41044    0.16371    0.99612   1.00
H2       0.44296    0.12551    1.01116   1.00
H2       0.46105    0.16505    0.98195   1.00
C3b      0.40653    0.12296    0.88078   1.00
C5       0.39553    0.14348    0.84344   1.00
H2       0.41966    0.16283    0.83390   1.00
H2       0.38935    0.12265    0.81941   1.00
H2       0.36905    0.16150    0.84807   1.00
C3a      0.42687    0.08345    0.94971   1.00
H1       0.43469    0.06800    0.97619   1.00
C3a      0.40778    0.08243    0.88145   1.00
H1       0.40086    0.06619    0.85519   1.00
C2       0.41790    0.06257    0.91572   1.00
C2       0.41428    0.41210    0.76743   1.00
C3a      0.42398    0.37856    0.74616   1.00
H1       0.43124    0.35175    0.76131   1.00
C3a      0.40487    0.44680    0.74796   1.00
H1       0.39738    0.47271    0.76449   1.00
C3b      0.42437    0.37933    0.70562   1.00
C5       0.43493    0.34274    0.68356   1.00
H2       0.46102    0.34803    0.66516   1.00
H2       0.44155    0.31800    0.70339   1.00
H2       0.41039    0.33387    0.66440   1.00
C3b      0.40505    0.44832    0.70744   1.00
C5       0.39479    0.48610    0.68733   1.00
H2       0.36896    0.48187    0.66830   1.00
H2       0.38788    0.50968    0.70845   1.00
H2       0.41958    0.49603    0.66906   1.00
C4       0.41485    0.41440    0.68627   1.00
C4       0.41515    0.41560    0.64373   1.00
C3b      0.44980    0.42582    0.62399   1.00
C5       0.48685    0.43563    0.64563   1.00
H2       0.49612    0.41044    0.66371   1.00
H2       0.51116    0.44296    0.62551   1.00
H2       0.48195    0.46105    0.66505   1.00
C3b      0.38078    0.40653    0.62296   1.00
C5       0.34344    0.39553    0.64348   1.00
H2       0.33390    0.41966    0.66283   1.00
H2       0.31941    0.38935    0.62265   1.00
H2       0.34807    0.36905    0.66150   1.00
C3a      0.44971    0.42687    0.58345   1.00
H1       0.47619    0.43469    0.56800   1.00
C3a      0.38145    0.40778    0.58243   1.00
H1       0.35519    0.40086    0.56619   1.00
C2       0.41572    0.41790    0.56257   1.00
C2       0.41428    0.91790    0.56257   1.00
C3a      0.42398    0.95144    0.58384   1.00
H1       0.43124    0.97825    0.56869   1.00
C3a      0.40487    0.88320    0.58204   1.00
H1       0.39738    0.85729    0.56551   1.00
C3b      0.42437    0.95067    0.62438   1.00
C5       0.43493    0.98726    0.64644   1.00
H2       0.46102    0.98197    0.66484   1.00
H2       0.44155    1.01200    0.62661   1.00
H2       0.41039    0.99613    0.66560   1.00
C3b      0.40505    0.88168    0.62256   1.00
C5       0.39479    0.84390    0.64267   1.00
H2       0.36896    0.84813    0.66170   1.00
H2       0.38788    0.82032    0.62155   1.00
H2       0.41958    0.83397    0.66094   1.00
C4       0.41485    0.91560    0.64373   1.00
C4       0.41515    0.91440    0.68627   1.00
C3b      0.44980    0.90418    0.70601   1.00
C5       0.48685    0.89437    0.68437   1.00
H2       0.49612    0.91956    0.66629   1.00
H2       0.51116    0.88704    0.70449   1.00
H2       0.48195    0.86895    0.66495   1.00
C3b      0.38078    0.92347    0.70704   1.00
C5       0.34344    0.93447    0.68652   1.00
H2       0.33390    0.91034    0.66717   1.00
H2       0.31941    0.94065    0.70735   1.00
H2       0.34807    0.96095    0.66850   1.00
C3a      0.44971    0.90313    0.74655   1.00
H1       0.47619    0.89531    0.76200   1.00
C3a      0.38145    0.92222    0.74757   1.00
H1       0.35519    0.92914    0.76381   1.00
C2       0.41572    0.91210    0.76743   1.00
C2       0.41790    1.06257    0.41428   1.00
C3a      0.45144    1.08384    0.42398   1.00
H1       0.47825    1.06869    0.43124   1.00
C3a      0.38320    1.08204    0.40487   1.00
H1       0.35729    1.06551    0.39738   1.00
C3b      0.45067    1.12438    0.42437   1.00
C5       0.48726    1.14644    0.43493   1.00
H2       0.48197    1.16484    0.46102   1.00
H2       0.51200    1.12661    0.44155   1.00
H2       0.49613    1.16560    0.41039   1.00
C3b      0.38168    1.12256    0.40505   1.00
C5       0.34390    1.14267    0.39479   1.00
H2       0.34813    1.16170    0.36896   1.00
H2       0.32032    1.12155    0.38788   1.00
H2       0.33397    1.16094    0.41958   1.00
C4       0.41560    1.14373    0.41485   1.00
C4       0.41440    1.18627    0.41515   1.00
C3b      0.40418    1.20601    0.44980   1.00
C5       0.39437    1.18437    0.48685   1.00
H2       0.41956    1.16629    0.49612   1.00
H2       0.38704    1.20449    0.51116   1.00
H2       0.36895    1.16495    0.48195   1.00
C3b      0.42347    1.20704    0.38078   1.00
C5       0.43447    1.18652    0.34344   1.00
H2       0.41034    1.16717    0.33390   1.00
H2       0.44065    1.20735    0.31941   1.00
H2       0.46095    1.16850    0.34807   1.00
C3a      0.40313    1.24655    0.44971   1.00
H1       0.39531    1.26200    0.47619   1.00
C3a      0.42222    1.24757    0.38145   1.00
H1       0.42914    1.26381    0.35519   1.00
C2       0.41210    1.26743    0.41572   1.00
C2       0.26743    0.91428    0.41210   1.00
C3a      0.24616    0.92398    0.37856   1.00
H1       0.26131    0.93124    0.35175   1.00
C3a      0.24796    0.90487    0.44680   1.00
H1       0.26449    0.89738    0.47271   1.00
C3b      0.20562    0.92437    0.37933   1.00
C5       0.18356    0.93493    0.34274   1.00
H2       0.16516    0.96102    0.34803   1.00
H2       0.20339    0.94155    0.31800   1.00
H2       0.16440    0.91039    0.33387   1.00
C3b      0.20744    0.90505    0.44832   1.00
C5       0.18733    0.89479    0.48610   1.00
H2       0.16830    0.86896    0.48187   1.00
H2       0.20845    0.88788    0.50968   1.00
H2       0.16906    0.91958    0.49603   1.00
C4       0.18627    0.91485    0.41440   1.00
C4       0.14373    0.91515    0.41560   1.00
C3b      0.12399    0.94980    0.42582   1.00
C5       0.14563    0.98685    0.43563   1.00
H2       0.16371    0.99612    0.41044   1.00
H2       0.12551    1.01116    0.44296   1.00
H2       0.16505    0.98195    0.46105   1.00
C3b      0.12296    0.88078    0.40653   1.00
C5       0.14348    0.84344    0.39553   1.00
H2       0.16283    0.83390    0.41966   1.00
H2       0.12265    0.81941    0.38935   1.00
H2       0.16150    0.84807    0.36905   1.00
C3a      0.08345    0.94971    0.42687   1.00
H1       0.06800    0.97619    0.43469   1.00
C3a      0.08243    0.88145    0.40778   1.00
H1       0.06619    0.85519    0.40086   1.00
C2       0.06257    0.91572    0.41790   1.00
C2       0.56257    0.91428    0.41790   1.00
C3a      0.58384    0.92398    0.45144   1.00
H1       0.56869    0.93124    0.47825   1.00
C3a      0.58204    0.90487    0.38320   1.00
H1       0.56551    0.89738    0.35729   1.00
C3b      0.62438    0.92437    0.45067   1.00
C5       0.64644    0.93493    0.48726   1.00
H2       0.66484    0.96102    0.48197   1.00
H2       0.62661    0.94155    0.51200   1.00
H2       0.66560    0.91039    0.49613   1.00
C3b      0.62256    0.90505    0.38168   1.00
C5       0.64267    0.89479    0.34390   1.00
H2       0.66170    0.86896    0.34813   1.00
H2       0.62155    0.88788    0.32032   1.00
H2       0.66094    0.91958    0.33397   1.00
C4       0.64373    0.91485    0.41560   1.00
C4       0.68627    0.91515    0.41440   1.00
C3b      0.70601    0.94980    0.40418   1.00
C5       0.68437    0.98685    0.39437   1.00
H2       0.66629    0.99612    0.41956   1.00
H2       0.70449    1.01116    0.38704   1.00
H2       0.66495    0.98195    0.36895   1.00
C3b      0.70704    0.88078    0.42347   1.00
C5       0.68652    0.84344    0.43447   1.00
H2       0.66717    0.83390    0.41034   1.00
H2       0.70735    0.81941    0.44065   1.00
H2       0.66850    0.84807    0.46095   1.00
C3a      0.74655    0.94971    0.40313   1.00
H1       0.76200    0.97619    0.39531   1.00
C3a      0.74757    0.88145    0.42222   1.00
H1       0.76381    0.85519    0.42914   1.00
C2       0.76743    0.91572    0.41210   1.00
C2       0.41210    0.76743    0.41428   1.00
C3a      0.37856    0.74616    0.42398   1.00
H1       0.35175    0.76131    0.43124   1.00
C3a      0.44680    0.74796    0.40487   1.00
H1       0.47271    0.76449    0.39738   1.00
C3b      0.37933    0.70562    0.42437   1.00
C5       0.34274    0.68356    0.43493   1.00
H2       0.34803    0.66516    0.46102   1.00
H2       0.31800    0.70339    0.44155   1.00
H2       0.33387    0.66440    0.41039   1.00
C3b      0.44832    0.70744    0.40505   1.00
C5       0.48610    0.68733    0.39479   1.00
H2       0.48187    0.66830    0.36896   1.00
H2       0.50968    0.70845    0.38788   1.00
H2       0.49603    0.66906    0.41958   1.00
C4       0.41440    0.68627    0.41485   1.00
C4       0.41560    0.64373    0.41515   1.00
C3b      0.42582    0.62399    0.44980   1.00
C5       0.43563    0.64563    0.48685   1.00
H2       0.41044    0.66371    0.49612   1.00
H2       0.44296    0.62551    0.51116   1.00
H2       0.46105    0.66505    0.48195   1.00
C3b      0.40653    0.62296    0.38078   1.00
C5       0.39553    0.64348    0.34344   1.00
H2       0.41966    0.66283    0.33390   1.00
H2       0.38935    0.62265    0.31941   1.00
H2       0.36905    0.66150    0.34807   1.00
C3a      0.42687    0.58345    0.44971   1.00
H1       0.43469    0.56800    0.47619   1.00
C3a      0.40778    0.58243    0.38145   1.00
H1       0.40086    0.56619    0.35519   1.00
C2       0.41790    0.56257    0.41572   1.00
C2       0.41428    0.91210    0.26743   1.00
C3a      0.42398    0.87856    0.24616   1.00
H1       0.43124    0.85175    0.26131   1.00
C3a      0.40487    0.94680    0.24796   1.00
H1       0.39738    0.97271    0.26449   1.00
C3b      0.42437    0.87933    0.20562   1.00
C5       0.43493    0.84274    0.18356   1.00
H2       0.46102    0.84803    0.16516   1.00
H2       0.44155    0.81800    0.20339   1.00
H2       0.41039    0.83387    0.16440   1.00
C3b      0.40505    0.94832    0.20744   1.00
C5       0.39479    0.98610    0.18733   1.00
H2       0.36896    0.98187    0.16830   1.00
H2       0.38788    1.00968    0.20845   1.00
H2       0.41958    0.99603    0.16906   1.00
C4       0.41485    0.91440    0.18627   1.00
C4       0.41515    0.91560    0.14373   1.00
C3b      0.44980    0.92582    0.12399   1.00
C5       0.48685    0.93563    0.14563   1.00
H2       0.49612    0.91044    0.16371   1.00
H2       0.51116    0.94296    0.12551   1.00
H2       0.48195    0.96105    0.16505   1.00
C3b      0.38078    0.90653    0.12296   1.00
C5       0.34344    0.89553    0.14348   1.00
H2       0.33390    0.91966    0.16283   1.00
H2       0.31941    0.88935    0.12265   1.00
H2       0.34807    0.86905    0.16150   1.00
C3a      0.44971    0.92687    0.08345   1.00
H1       0.47619    0.93469    0.06800   1.00
C3a      0.38145    0.90778    0.08243   1.00
H1       0.35519    0.90086    0.06619   1.00
C2       0.41572    0.91790    0.06257   1.00
C2       0.91428    0.41790    0.56257   1.00
C3a      0.92398    0.45144    0.58384   1.00
H1       0.93124    0.47825    0.56869   1.00
C3a      0.90487    0.38320    0.58204   1.00
H1       0.89738    0.35729    0.56551   1.00
C3b      0.92437    0.45067    0.62438   1.00
C5       0.93493    0.48726    0.64644   1.00
H2       0.96102    0.48197    0.66484   1.00
H2       0.94155    0.51200    0.62661   1.00
H2       0.91039    0.49613    0.66560   1.00
C3b      0.90505    0.38168    0.62256   1.00
C5       0.89479    0.34390    0.64267   1.00
H2       0.86896    0.34813    0.66170   1.00
H2       0.88788    0.32032    0.62155   1.00
H2       0.91958    0.33397    0.66094   1.00
C4       0.91485    0.41560    0.64373   1.00
C4       0.91515    0.41440    0.68627   1.00
C3b      0.94980    0.40418    0.70601   1.00
C5       0.98685    0.39437    0.68437   1.00
H2       0.99612    0.41956    0.66629   1.00
H2       1.01116    0.38704    0.70449   1.00
H2       0.98195    0.36895    0.66495   1.00
C3b      0.88078    0.42347    0.70704   1.00
C5       0.84344    0.43447    0.68652   1.00
H2       0.83390    0.41034    0.66717   1.00
H2       0.81941    0.44065    0.70735   1.00
H2       0.84807    0.46095    0.66850   1.00
C3a      0.94971    0.40313    0.74655   1.00
H1       0.97619    0.39531    0.76200   1.00
C3a      0.88145    0.42222    0.74757   1.00
H1       0.85519    0.42914    0.76381   1.00
C2       0.91572    0.41210    0.76743   1.00
C2       0.91790    0.56257    0.41428   1.00
C3a      0.95144    0.58384    0.42398   1.00
H1       0.97825    0.56869    0.43124   1.00
C3a      0.88320    0.58204    0.40487   1.00
H1       0.85729    0.56551    0.39738   1.00
C3b      0.95067    0.62438    0.42437   1.00
C5       0.98726    0.64644    0.43493   1.00
H2       0.98197    0.66484    0.46102   1.00
H2       1.01200    0.62661    0.44155   1.00
H2       0.99613    0.66560    0.41039   1.00
C3b      0.88168    0.62256    0.40505   1.00
C5       0.84390    0.64267    0.39479   1.00
H2       0.84813    0.66170    0.36896   1.00
H2       0.82032    0.62155    0.38788   1.00
H2       0.83397    0.66094    0.41958   1.00
C4       0.91560    0.64373    0.41485   1.00
C4       0.91440    0.68627    0.41515   1.00
C3b      0.90418    0.70601    0.44980   1.00
C5       0.89437    0.68437    0.48685   1.00
H2       0.91956    0.66629    0.49612   1.00
H2       0.88704    0.70449    0.51116   1.00
H2       0.86895    0.66495    0.48195   1.00
C3b      0.92347    0.70704    0.38078   1.00
C5       0.93447    0.68652    0.34344   1.00
H2       0.91034    0.66717    0.33390   1.00
H2       0.94065    0.70735    0.31941   1.00
H2       0.96095    0.66850    0.34807   1.00
C3a      0.90313    0.74655    0.44971   1.00
H1       0.89531    0.76200    0.47619   1.00
C3a      0.92222    0.74757    0.38145   1.00
H1       0.92914    0.76381    0.35519   1.00
C2       0.91210    0.76743    0.41572   1.00
C2       0.76743    0.41428    0.41210   1.00
C3a      0.74616    0.42398    0.37856   1.00
H1       0.76131    0.43124    0.35175   1.00
C3a      0.74796    0.40487    0.44680   1.00
H1       0.76449    0.39738    0.47271   1.00
C3b      0.70562    0.42437    0.37933   1.00
C5       0.68356    0.43493    0.34274   1.00
H2       0.66516    0.46102    0.34803   1.00
H2       0.70339    0.44155    0.31800   1.00
H2       0.66440    0.41039    0.33387   1.00
C3b      0.70744    0.40505    0.44832   1.00
C5       0.68733    0.39479    0.48610   1.00
H2       0.66830    0.36896    0.48187   1.00
H2       0.70845    0.38788    0.50968   1.00
H2       0.66906    0.41958    0.49603   1.00
C4       0.68627    0.41485    0.41440   1.00
C4       0.64373    0.41515    0.41560   1.00
C3b      0.62399    0.44980    0.42582   1.00
C5       0.64563    0.48685    0.43563   1.00
H2       0.66371    0.49612    0.41044   1.00
H2       0.62551    0.51116    0.44296   1.00
H2       0.66505    0.48195    0.46105   1.00
C3b      0.62296    0.38078    0.40653   1.00
C5       0.64348    0.34344    0.39553   1.00
H2       0.66283    0.33390    0.41966   1.00
H2       0.62265    0.31941    0.38935   1.00
H2       0.66150    0.34807    0.36905   1.00
C3a      0.58345    0.44971    0.42687   1.00
H1       0.56800    0.47619    0.43469   1.00
C3a      0.58243    0.38145    0.40778   1.00
H1       0.56619    0.35519    0.40086   1.00
C2       0.56257    0.41572    0.41790   1.00
C2       1.06257    0.41428    0.41790   1.00
C3a      1.08384    0.42398    0.45144   1.00
H1       1.06869    0.43124    0.47825   1.00
C3a      1.08204    0.40487    0.38320   1.00
H1       1.06551    0.39738    0.35729   1.00
C3b      1.12438    0.42437    0.45067   1.00
C5       1.14644    0.43493    0.48726   1.00
H2       1.16484    0.46102    0.48197   1.00
H2       1.12661    0.44155    0.51200   1.00
H2       1.16560    0.41039    0.49613   1.00
C3b      1.12256    0.40505    0.38168   1.00
C5       1.14267    0.39479    0.34390   1.00
H2       1.16170    0.36896    0.34813   1.00
H2       1.12155    0.38788    0.32032   1.00
H2       1.16094    0.41958    0.33397   1.00
C4       1.14373    0.41485    0.41560   1.00
C4       1.18627    0.41515    0.41440   1.00
C3b      1.20601    0.44980    0.40418   1.00
C5       1.18437    0.48685    0.39437   1.00
H2       1.16629    0.49612    0.41956   1.00
H2       1.20449    0.51116    0.38704   1.00
H2       1.16495    0.48195    0.36895   1.00
C3b      1.20704    0.38078    0.42347   1.00
C5       1.18652    0.34344    0.43447   1.00
H2       1.16717    0.33390    0.41034   1.00
H2       1.20735    0.31941    0.44065   1.00
H2       1.16850    0.34807    0.46095   1.00
C3a      1.24655    0.44971    0.40313   1.00
H1       1.26200    0.47619    0.39531   1.00
C3a      1.24757    0.38145    0.42222   1.00
H1       1.26381    0.35519    0.42914   1.00
C2       1.26743    0.41572    0.41210   1.00
C2       0.91210    0.26743    0.41428   1.00
C3a      0.87856    0.24616    0.42398   1.00
H1       0.85175    0.26131    0.43124   1.00
C3a      0.94680    0.24796    0.40487   1.00
H1       0.97271    0.26449    0.39738   1.00
C3b      0.87933    0.20562    0.42437   1.00
C5       0.84274    0.18356    0.43493   1.00
H2       0.84803    0.16516    0.46102   1.00
H2       0.81800    0.20339    0.44155   1.00
H2       0.83387    0.16440    0.41039   1.00
C3b      0.94832    0.20744    0.40505   1.00
C5       0.98610    0.18733    0.39479   1.00
H2       0.98187    0.16830    0.36896   1.00
H2       1.00968    0.20845    0.38788   1.00
H2       0.99603    0.16906    0.41958   1.00
C4       0.91440    0.18627    0.41485   1.00
C4       0.91560    0.14373    0.41515   1.00
C3b      0.92582    0.12399    0.44980   1.00
C5       0.93563    0.14563    0.48685   1.00
H2       0.91044    0.16371    0.49612   1.00
H2       0.94296    0.12551    0.51116   1.00
H2       0.96105    0.16505    0.48195   1.00
C3b      0.90653    0.12296    0.38078   1.00
C5       0.89553    0.14348    0.34344   1.00
H2       0.91966    0.16283    0.33390   1.00
H2       0.88935    0.12265    0.31941   1.00
H2       0.86905    0.16150    0.34807   1.00
C3a      0.92687    0.08345    0.44971   1.00
H1       0.93469    0.06800    0.47619   1.00
C3a      0.90778    0.08243    0.38145   1.00
H1       0.90086    0.06619    0.35519   1.00
C2       0.91790    0.06257    0.41572   1.00
C2       0.91428    0.41210    0.26743   1.00
C3a      0.92398    0.37856    0.24616   1.00
H1       0.93124    0.35175    0.26131   1.00
C3a      0.90487    0.44680    0.24796   1.00
H1       0.89738    0.47271    0.26449   1.00
C3b      0.92437    0.37933    0.20562   1.00
C5       0.93493    0.34274    0.18356   1.00
H2       0.96102    0.34803    0.16516   1.00
H2       0.94155    0.31800    0.20339   1.00
H2       0.91039    0.33387    0.16440   1.00
C3b      0.90505    0.44832    0.20744   1.00
C5       0.89479    0.48610    0.18733   1.00
H2       0.86896    0.48187    0.16830   1.00
H2       0.88788    0.50968    0.20845   1.00
H2       0.91958    0.49603    0.16906   1.00
C4       0.91485    0.41440    0.18627   1.00
C4       0.91515    0.41560    0.14373   1.00
C3b      0.94980    0.42582    0.12399   1.00
C5       0.98685    0.43563    0.14563   1.00
H2       0.99612    0.41044    0.16371   1.00
H2       1.01116    0.44296    0.12551   1.00
H2       0.98195    0.46105    0.16505   1.00
C3b      0.88078    0.40653    0.12296   1.00
C5       0.84344    0.39553    0.14348   1.00
H2       0.83390    0.41966    0.16283   1.00
H2       0.81941    0.38935    0.12265   1.00
H2       0.84807    0.36905    0.16150   1.00
C3a      0.94971    0.42687    0.08345   1.00
H1       0.97619    0.43469    0.06800   1.00
C3a      0.88145    0.40778    0.08243   1.00
H1       0.85519    0.40086    0.06619   1.00
C2       0.91572    0.41790    0.06257   1.00
