data_IRMOF10_SG202_interpen_Ligand7cp_label_i.

_audit_creation_method             'generated by an auxiliary program of Tobunporous'

_symmetry_space_group_name_H-M     'P 1'
_symmetry_Int_Tables_number        1
_symmetry_cell_setting             triclinic

_cell_length_a                    34.2800
_cell_length_b                    34.2800
_cell_length_c                    34.2800
_cell_angle_alpha                 90.0000
_cell_angle_beta                  90.0000
_cell_angle_gamma                 90.0000

loop_
_atom_site_label
_atom_site_fract_x
_atom_site_fract_y
_atom_site_fract_z
_atom_site_occupancy
O1       0.75000    0.75000    0.75000   1.00
Zn1      0.71720    0.78280    0.78280   1.00
Zn1      0.78280    0.71720    0.78280   1.00
Zn1      0.78280    0.78280    0.71720   1.00
Zn1      0.71720    0.71720    0.71720   1.00
O2       0.72650    0.77350    0.83820   1.00
O2       0.72650    0.83820    0.77350   1.00
O2       0.66180    0.77350    0.77350   1.00
O2       0.77350    0.72650    0.83820   1.00
O2       0.83820    0.72650    0.77350   1.00
O2       0.77350    0.66180    0.77350   1.00
O2       0.77350    0.83820    0.72650   1.00
O2       0.83820    0.77350    0.72650   1.00
O2       0.77350    0.77350    0.66180   1.00
O2       0.66180    0.72650    0.72650   1.00
O2       0.72650    0.66180    0.72650   1.00
O2       0.72650    0.72650    0.66180   1.00
C1       0.75000    0.75000    0.85520   1.00
C1       0.75000    0.85520    0.75000   1.00
C1       0.64480    0.75000    0.75000   1.00
C1       0.85520    0.75000    0.75000   1.00
C1       0.75000    0.64480    0.75000   1.00
C1       0.75000    0.75000    0.64480   1.00
O1       0.25000    0.25000    0.75000   1.00
Zn1      0.21720    0.28280    0.78280   1.00
Zn1      0.28280    0.21720    0.78280   1.00
Zn1      0.28280    0.28280    0.71720   1.00
Zn1      0.21720    0.21720    0.71720   1.00
O2       0.22650    0.27350    0.83820   1.00
O2       0.22650    0.33820    0.77350   1.00
O2       0.16180    0.27350    0.77350   1.00
O2       0.27350    0.22650    0.83820   1.00
O2       0.33820    0.22650    0.77350   1.00
O2       0.27350    0.16180    0.77350   1.00
O2       0.27350    0.33820    0.72650   1.00
O2       0.33820    0.27350    0.72650   1.00
O2       0.27350    0.27350    0.66180   1.00
O2       0.16180    0.22650    0.72650   1.00
O2       0.22650    0.16180    0.72650   1.00
O2       0.22650    0.22650    0.66180   1.00
C1       0.25000    0.25000    0.85520   1.00
C1       0.25000    0.35520    0.75000   1.00
C1       0.14480    0.25000    0.75000   1.00
C1       0.35520    0.25000    0.75000   1.00
C1       0.25000    0.14480    0.75000   1.00
C1       0.25000    0.25000    0.64480   1.00
O1       0.25000    0.75000    0.25000   1.00
Zn1      0.21720    0.78280    0.28280   1.00
Zn1      0.28280    0.71720    0.28280   1.00
Zn1      0.28280    0.78280    0.21720   1.00
Zn1      0.21720    0.71720    0.21720   1.00
O2       0.22650    0.77350    0.33820   1.00
O2       0.22650    0.83820    0.27350   1.00
O2       0.16180    0.77350    0.27350   1.00
O2       0.27350    0.72650    0.33820   1.00
O2       0.33820    0.72650    0.27350   1.00
O2       0.27350    0.66180    0.27350   1.00
O2       0.27350    0.83820    0.22650   1.00
O2       0.33820    0.77350    0.22650   1.00
O2       0.27350    0.77350    0.16180   1.00
O2       0.16180    0.72650    0.22650   1.00
O2       0.22650    0.66180    0.22650   1.00
O2       0.22650    0.72650    0.16180   1.00
C1       0.25000    0.75000    0.35520   1.00
C1       0.25000    0.85520    0.25000   1.00
C1       0.14480    0.75000    0.25000   1.00
C1       0.35520    0.75000    0.25000   1.00
C1       0.25000    0.64480    0.25000   1.00
C1       0.25000    0.75000    0.14480   1.00
O1       0.75000    0.25000    0.25000   1.00
Zn1      0.71720    0.28280    0.28280   1.00
Zn1      0.78280    0.21720    0.28280   1.00
Zn1      0.78280    0.28280    0.21720   1.00
Zn1      0.71720    0.21720    0.21720   1.00
O2       0.72650    0.27350    0.33820   1.00
O2       0.72650    0.33820    0.27350   1.00
O2       0.66180    0.27350    0.27350   1.00
O2       0.77350    0.22650    0.33820   1.00
O2       0.83820    0.22650    0.27350   1.00
O2       0.77350    0.16180    0.27350   1.00
O2       0.77350    0.33820    0.22650   1.00
O2       0.83820    0.27350    0.22650   1.00
O2       0.77350    0.27350    0.16180   1.00
O2       0.66180    0.22650    0.22650   1.00
O2       0.72650    0.16180    0.22650   1.00
O2       0.72650    0.22650    0.16180   1.00
C1       0.75000    0.25000    0.35520   1.00
C1       0.75000    0.35520    0.25000   1.00
C1       0.64480    0.25000    0.25000   1.00
C1       0.85520    0.25000    0.25000   1.00
C1       0.75000    0.14480    0.25000   1.00
C1       0.75000    0.25000    0.14480   1.00
O1       0.25000    0.25000    0.25000   1.00
Zn1      0.28280    0.21720    0.21720   1.00
Zn1      0.21720    0.28280    0.21720   1.00
Zn1      0.21720    0.21720    0.28280   1.00
Zn1      0.28280    0.28280    0.28280   1.00
O2       0.27350    0.22650    0.16180   1.00
O2       0.27350    0.16180    0.22650   1.00
O2       0.33820    0.22650    0.22650   1.00
O2       0.22650    0.27350    0.16180   1.00
O2       0.16180    0.27350    0.22650   1.00
O2       0.22650    0.33820    0.22650   1.00
O2       0.22650    0.16180    0.27350   1.00
O2       0.16180    0.22650    0.27350   1.00
O2       0.22650    0.22650    0.33820   1.00
O2       0.33820    0.27350    0.27350   1.00
O2       0.27350    0.33820    0.27350   1.00
O2       0.27350    0.27350    0.33820   1.00
C1       0.25000    0.25000    0.14480   1.00
C1       0.25000    0.14480    0.25000   1.00
C1       0.35520    0.25000    0.25000   1.00
C1       0.14480    0.25000    0.25000   1.00
C1       0.25000    0.35520    0.25000   1.00
C1       0.25000    0.25000    0.35520   1.00
O1       0.75000    0.75000    0.25000   1.00
Zn1      0.78280    0.71720    0.21720   1.00
Zn1      0.71720    0.78280    0.21720   1.00
Zn1      0.71720    0.71720    0.28280   1.00
Zn1      0.78280    0.78280    0.28280   1.00
O2       0.77350    0.72650    0.16180   1.00
O2       0.77350    0.66180    0.22650   1.00
O2       0.83820    0.72650    0.22650   1.00
O2       0.72650    0.77350    0.16180   1.00
O2       0.66180    0.77350    0.22650   1.00
O2       0.72650    0.83820    0.22650   1.00
O2       0.72650    0.66180    0.27350   1.00
O2       0.66180    0.72650    0.27350   1.00
O2       0.72650    0.72650    0.33820   1.00
O2       0.83820    0.77350    0.27350   1.00
O2       0.77350    0.83820    0.27350   1.00
O2       0.77350    0.77350    0.33820   1.00
C1       0.75000    0.75000    0.14480   1.00
C1       0.75000    0.64480    0.25000   1.00
C1       0.85520    0.75000    0.25000   1.00
C1       0.64480    0.75000    0.25000   1.00
C1       0.75000    0.85520    0.25000   1.00
C1       0.75000    0.75000    0.35520   1.00
O1       0.75000    0.25000    0.75000   1.00
Zn1      0.78280    0.21720    0.71720   1.00
Zn1      0.71720    0.28280    0.71720   1.00
Zn1      0.71720    0.21720    0.78280   1.00
Zn1      0.78280    0.28280    0.78280   1.00
O2       0.77350    0.22650    0.66180   1.00
O2       0.77350    0.16180    0.72650   1.00
O2       0.83820    0.22650    0.72650   1.00
O2       0.72650    0.27350    0.66180   1.00
O2       0.66180    0.27350    0.72650   1.00
O2       0.72650    0.33820    0.72650   1.00
O2       0.72650    0.16180    0.77350   1.00
O2       0.66180    0.22650    0.77350   1.00
O2       0.72650    0.22650    0.83820   1.00
O2       0.83820    0.27350    0.77350   1.00
O2       0.77350    0.33820    0.77350   1.00
O2       0.77350    0.27350    0.83820   1.00
C1       0.75000    0.25000    0.64480   1.00
C1       0.75000    0.14480    0.75000   1.00
C1       0.85520    0.25000    0.75000   1.00
C1       0.64480    0.25000    0.75000   1.00
C1       0.75000    0.35520    0.75000   1.00
C1       0.75000    0.25000    0.85520   1.00
O1       0.25000    0.75000    0.75000   1.00
Zn1      0.28280    0.71720    0.71720   1.00
Zn1      0.21720    0.78280    0.71720   1.00
Zn1      0.21720    0.71720    0.78280   1.00
Zn1      0.28280    0.78280    0.78280   1.00
O2       0.27350    0.72650    0.66180   1.00
O2       0.27350    0.66180    0.72650   1.00
O2       0.33820    0.72650    0.72650   1.00
O2       0.22650    0.77350    0.66180   1.00
O2       0.16180    0.77350    0.72650   1.00
O2       0.22650    0.83820    0.72650   1.00
O2       0.22650    0.66180    0.77350   1.00
O2       0.16180    0.72650    0.77350   1.00
O2       0.22650    0.72650    0.83820   1.00
O2       0.33820    0.77350    0.77350   1.00
O2       0.27350    0.83820    0.77350   1.00
O2       0.27350    0.77350    0.83820   1.00
C1       0.25000    0.75000    0.64480   1.00
C1       0.25000    0.64480    0.75000   1.00
C1       0.35520    0.75000    0.75000   1.00
C1       0.14480    0.75000    0.75000   1.00
C1       0.25000    0.85520    0.75000   1.00
C1       0.25000    0.75000    0.85520   1.00
O1       0.91500    0.91500    0.91500   1.00
Zn1      0.88220    0.94780    0.94780   1.00
Zn1      0.94780    0.88220    0.94780   1.00
Zn1      0.94780    0.94780    0.88220   1.00
Zn1      0.88220    0.88220    0.88220   1.00
O2       0.89150    0.93850    1.00320   1.00
O2       0.89150    1.00320    0.93850   1.00
O2       0.82680    0.93850    0.93850   1.00
O2       0.93850    0.89150    1.00320   1.00
O2       1.00320    0.89150    0.93850   1.00
O2       0.93850    0.82680    0.93850   1.00
O2       0.93850    1.00320    0.89150   1.00
O2       1.00320    0.93850    0.89150   1.00
O2       0.93850    0.93850    0.82680   1.00
O2       0.82680    0.89150    0.89150   1.00
O2       0.89150    0.82680    0.89150   1.00
O2       0.89150    0.89150    0.82680   1.00
C1       0.91500    0.91500    1.02020   1.00
C1       0.91500    1.02020    0.91500   1.00
C1       0.80980    0.91500    0.91500   1.00
C1       1.02020    0.91500    0.91500   1.00
C1       0.91500    0.80980    0.91500   1.00
C1       0.91500    0.91500    0.80980   1.00
O1       0.41500    0.41500    0.91500   1.00
Zn1      0.38220    0.44780    0.94780   1.00
Zn1      0.44780    0.38220    0.94780   1.00
Zn1      0.44780    0.44780    0.88220   1.00
Zn1      0.38220    0.38220    0.88220   1.00
O2       0.39150    0.43850    1.00320   1.00
O2       0.39150    0.50320    0.93850   1.00
O2       0.32680    0.43850    0.93850   1.00
O2       0.43850    0.39150    1.00320   1.00
O2       0.50320    0.39150    0.93850   1.00
O2       0.43850    0.32680    0.93850   1.00
O2       0.43850    0.50320    0.89150   1.00
O2       0.50320    0.43850    0.89150   1.00
O2       0.43850    0.43850    0.82680   1.00
O2       0.32680    0.39150    0.89150   1.00
O2       0.39150    0.32680    0.89150   1.00
O2       0.39150    0.39150    0.82680   1.00
C1       0.41500    0.41500    1.02020   1.00
C1       0.41500    0.52020    0.91500   1.00
C1       0.30980    0.41500    0.91500   1.00
C1       0.52020    0.41500    0.91500   1.00
C1       0.41500    0.30980    0.91500   1.00
C1       0.41500    0.41500    0.80980   1.00
O1       0.41500    0.91500    0.41500   1.00
Zn1      0.38220    0.94780    0.44780   1.00
Zn1      0.44780    0.88220    0.44780   1.00
Zn1      0.44780    0.94780    0.38220   1.00
Zn1      0.38220    0.88220    0.38220   1.00
O2       0.39150    0.93850    0.50320   1.00
O2       0.39150    1.00320    0.43850   1.00
O2       0.32680    0.93850    0.43850   1.00
O2       0.43850    0.89150    0.50320   1.00
O2       0.50320    0.89150    0.43850   1.00
O2       0.43850    0.82680    0.43850   1.00
O2       0.43850    1.00320    0.39150   1.00
O2       0.50320    0.93850    0.39150   1.00
O2       0.43850    0.93850    0.32680   1.00
O2       0.32680    0.89150    0.39150   1.00
O2       0.39150    0.82680    0.39150   1.00
O2       0.39150    0.89150    0.32680   1.00
C1       0.41500    0.91500    0.52020   1.00
C1       0.41500    1.02020    0.41500   1.00
C1       0.30980    0.91500    0.41500   1.00
C1       0.52020    0.91500    0.41500   1.00
C1       0.41500    0.80980    0.41500   1.00
C1       0.41500    0.91500    0.30980   1.00
O1       0.91500    0.41500    0.41500   1.00
Zn1      0.88220    0.44780    0.44780   1.00
Zn1      0.94780    0.38220    0.44780   1.00
Zn1      0.94780    0.44780    0.38220   1.00
Zn1      0.88220    0.38220    0.38220   1.00
O2       0.89150    0.43850    0.50320   1.00
O2       0.89150    0.50320    0.43850   1.00
O2       0.82680    0.43850    0.43850   1.00
O2       0.93850    0.39150    0.50320   1.00
O2       1.00320    0.39150    0.43850   1.00
O2       0.93850    0.32680    0.43850   1.00
O2       0.93850    0.50320    0.39150   1.00
O2       1.00320    0.43850    0.39150   1.00
O2       0.93850    0.43850    0.32680   1.00
O2       0.82680    0.39150    0.39150   1.00
O2       0.89150    0.32680    0.39150   1.00
O2       0.89150    0.39150    0.32680   1.00
C1       0.91500    0.41500    0.52020   1.00
C1       0.91500    0.52020    0.41500   1.00
C1       0.80980    0.41500    0.41500   1.00
C1       1.02020    0.41500    0.41500   1.00
C1       0.91500    0.30980    0.41500   1.00
C1       0.91500    0.41500    0.30980   1.00
O1       0.41500    0.41500    0.41500   1.00
Zn1      0.44780    0.38220    0.38220   1.00
Zn1      0.38220    0.44780    0.38220   1.00
Zn1      0.38220    0.38220    0.44780   1.00
Zn1      0.44780    0.44780    0.44780   1.00
O2       0.43850    0.39150    0.32680   1.00
O2       0.43850    0.32680    0.39150   1.00
O2       0.50320    0.39150    0.39150   1.00
O2       0.39150    0.43850    0.32680   1.00
O2       0.32680    0.43850    0.39150   1.00
O2       0.39150    0.50320    0.39150   1.00
O2       0.39150    0.32680    0.43850   1.00
O2       0.32680    0.39150    0.43850   1.00
O2       0.39150    0.39150    0.50320   1.00
O2       0.50320    0.43850    0.43850   1.00
O2       0.43850    0.50320    0.43850   1.00
O2       0.43850    0.43850    0.50320   1.00
C1       0.41500    0.41500    0.30980   1.00
C1       0.41500    0.30980    0.41500   1.00
C1       0.52020    0.41500    0.41500   1.00
C1       0.30980    0.41500    0.41500   1.00
C1       0.41500    0.52020    0.41500   1.00
C1       0.41500    0.41500    0.52020   1.00
O1       0.91500    0.91500    0.41500   1.00
Zn1      0.94780    0.88220    0.38220   1.00
Zn1      0.88220    0.94780    0.38220   1.00
Zn1      0.88220    0.88220    0.44780   1.00
Zn1      0.94780    0.94780    0.44780   1.00
O2       0.93850    0.89150    0.32680   1.00
O2       0.93850    0.82680    0.39150   1.00
O2       1.00320    0.89150    0.39150   1.00
O2       0.89150    0.93850    0.32680   1.00
O2       0.82680    0.93850    0.39150   1.00
O2       0.89150    1.00320    0.39150   1.00
O2       0.89150    0.82680    0.43850   1.00
O2       0.82680    0.89150    0.43850   1.00
O2       0.89150    0.89150    0.50320   1.00
O2       1.00320    0.93850    0.43850   1.00
O2       0.93850    1.00320    0.43850   1.00
O2       0.93850    0.93850    0.50320   1.00
C1       0.91500    0.91500    0.30980   1.00
C1       0.91500    0.80980    0.41500   1.00
C1       1.02020    0.91500    0.41500   1.00
C1       0.80980    0.91500    0.41500   1.00
C1       0.91500    1.02020    0.41500   1.00
C1       0.91500    0.91500    0.52020   1.00
O1       0.91500    0.41500    0.91500   1.00
Zn1      0.94780    0.38220    0.88220   1.00
Zn1      0.88220    0.44780    0.88220   1.00
Zn1      0.88220    0.38220    0.94780   1.00
Zn1      0.94780    0.44780    0.94780   1.00
O2       0.93850    0.39150    0.82680   1.00
O2       0.93850    0.32680    0.89150   1.00
O2       1.00320    0.39150    0.89150   1.00
O2       0.89150    0.43850    0.82680   1.00
O2       0.82680    0.43850    0.89150   1.00
O2       0.89150    0.50320    0.89150   1.00
O2       0.89150    0.32680    0.93850   1.00
O2       0.82680    0.39150    0.93850   1.00
O2       0.89150    0.39150    1.00320   1.00
O2       1.00320    0.43850    0.93850   1.00
O2       0.93850    0.50320    0.93850   1.00
O2       0.93850    0.43850    1.00320   1.00
C1       0.91500    0.41500    0.80980   1.00
C1       0.91500    0.30980    0.91500   1.00
C1       1.02020    0.41500    0.91500   1.00
C1       0.80980    0.41500    0.91500   1.00
C1       0.91500    0.52020    0.91500   1.00
C1       0.91500    0.41500    1.02020   1.00
O1       0.41500    0.91500    0.91500   1.00
Zn1      0.44780    0.88220    0.88220   1.00
Zn1      0.38220    0.94780    0.88220   1.00
Zn1      0.38220    0.88220    0.94780   1.00
Zn1      0.44780    0.94780    0.94780   1.00
O2       0.43850    0.89150    0.82680   1.00
O2       0.43850    0.82680    0.89150   1.00
O2       0.50320    0.89150    0.89150   1.00
O2       0.39150    0.93850    0.82680   1.00
O2       0.32680    0.93850    0.89150   1.00
O2       0.39150    1.00320    0.89150   1.00
O2       0.39150    0.82680    0.93850   1.00
O2       0.32680    0.89150    0.93850   1.00
O2       0.39150    0.89150    1.00320   1.00
O2       0.50320    0.93850    0.93850   1.00
O2       0.43850    1.00320    0.93850   1.00
O2       0.43850    0.93850    1.00320   1.00
C1       0.41500    0.91500    0.80980   1.00
C1       0.41500    0.80980    0.91500   1.00
C1       0.52020    0.91500    0.91500   1.00
C1       0.30980    0.91500    0.91500   1.00
C1       0.41500    1.02020    0.91500   1.00
C1       0.41500    0.91500    1.02020   1.00
C5       0.86715    0.79848    1.13218   1.00
H2       0.84776    0.81946    1.14745   1.00
H2       0.88418    0.81603    1.11090   1.00
C5       0.89459    0.77900    1.16194   1.00
C5       0.92955    0.80564    1.17123   1.00
H2       0.90559    0.75081    1.15015   1.00
O3       0.78786    0.69015    0.98000   1.00
C4       0.74962    0.75018    1.02100   1.00
C3c      0.77877    0.76943    1.04243   1.00
H1       0.80178    0.78476    1.02725   1.00
C3d      0.71959    0.73086    1.04135   1.00
C3       0.77908    0.76879    1.08354   1.00
O2       0.80568    0.79216    1.10248   1.00
C3       0.72022    0.72953    1.08227   1.00
H1       0.69735    0.71319    1.09657   1.00
C2       0.74972    0.74848    1.10439   1.00
C5       0.76594    0.65528    0.97879   1.00
H2       0.76137    0.64468    0.94838   1.00
H2       0.73675    0.65930    0.99266   1.00
C5       0.78861    0.62432    1.00129   1.00
H2       0.79413    0.63538    1.03137   1.00
H2       0.81754    0.62029    0.98698   1.00
C5       0.76600    0.58553    1.00262   1.00
H2       0.76014    0.57445    0.97268   1.00
H2       0.73770    0.58922    1.01811   1.00
C5       0.79002    0.55447    1.02445   1.00
C5       0.66037    0.73326    1.01105   1.00
C5       0.83991    0.77063    1.11070   1.00
H2       0.66992    0.75683    0.99088   1.00
H2       0.64640    0.74687    1.03712   1.00
H2       0.85368    0.76047    1.08300   1.00
H2       0.83398    0.74421    1.12895   1.00
H2       0.87938    0.77361    1.19030   1.00
H2       0.61344    0.74761    0.94247   1.00
H2       0.58647    0.75449    0.98763   1.00
C2       0.74953    0.74736    0.89605   1.00
C3       0.73196    0.77885    0.91597   1.00
O2       0.70657    0.80347    0.89674   1.00
C3       0.76858    0.71823    0.91826   1.00
H1       0.78318    0.69428    0.90385   1.00
C3a      0.73289    0.78002    0.95713   1.00
H1       0.71739    0.80312    0.97202   1.00
C3b      0.76838    0.71882    0.95922   1.00
C4       0.75038    0.74982    0.97900   1.00
O3       0.69190    0.70901    1.02167   1.00
C5       0.72546    0.83879    0.88720   1.00
H2       0.73630    0.85399    0.91391   1.00
C5       0.69546    0.86449    0.86674   1.00
H2       0.75061    0.83353    0.86726   1.00
H2       0.67646    0.87809    0.88932   1.00
H2       0.67637    0.84500    0.84907   1.00
C5       0.71420    0.89604    0.84082   1.00
H2       0.73547    0.91324    0.85824   1.00
C5       0.68296    0.92391    0.82453   1.00
H2       0.72931    0.88286    0.81507   1.00
C5       0.63039    0.70788    0.99017   1.00
H2       0.61599    0.68875    1.01215   1.00
H2       0.64619    0.68836    0.96952   1.00
C5       0.60002    0.73246    0.96800   1.00
C5       0.56738    0.70592    0.95225   1.00
H2       0.92018    0.82910    1.19286   1.00
C5       0.96270    0.78115    1.18912   1.00
H2       0.94027    0.82003    1.14323   1.00
C5       0.76400    0.51895    1.03337   1.00
H2       0.81565    0.54495    1.00551   1.00
H2       0.80144    0.56728    1.05293   1.00
C5       0.70297    0.95905    0.80497   1.00
H2       0.66437    0.90785    0.80211   1.00
H2       0.66359    0.93459    0.84937   1.00
H2       0.58086    0.68021    0.93602   1.00
H2       0.54906    0.69464    0.97761   1.00
C5       0.54128    0.72934    0.92417   1.00
H2       0.95025    0.75277    1.20116   1.00
H2       0.98530    0.77430    1.16571   1.00
H2       0.97708    0.79828    1.21374   1.00
H2       0.73463    0.52263    1.01820   1.00
H2       0.77880    0.49130    1.02229   1.00
H2       0.75930    0.51661    1.06621   1.00
H2       0.73020    0.94876    0.78889   1.00
H2       0.68199    0.97314    0.78336   1.00
H2       0.71154    0.98127    0.82819   1.00
H2       0.55254    0.72587    0.89307   1.00
H2       0.51007    0.71800    0.92598   1.00
H2       0.54191    0.76148    0.93266   1.00
C5       0.79848    1.13218    0.86715   1.00
H2       0.81946    1.14745    0.84776   1.00
H2       0.81603    1.11090    0.88418   1.00
C5       0.77900    1.16194    0.89459   1.00
C5       0.80564    1.17123    0.92955   1.00
H2       0.75081    1.15015    0.90559   1.00
O3       0.69015    0.98000    0.78786   1.00
C4       0.75018    1.02100    0.74962   1.00
C3c      0.76943    1.04243    0.77877   1.00
H1       0.78476    1.02725    0.80178   1.00
C3d      0.73086    1.04135    0.71959   1.00
C3       0.76879    1.08354    0.77908   1.00
O2       0.79216    1.10248    0.80568   1.00
C3       0.72953    1.08227    0.72022   1.00
H1       0.71319    1.09657    0.69735   1.00
C2       0.74848    1.10439    0.74972   1.00
C5       0.65528    0.97879    0.76594   1.00
H2       0.64468    0.94838    0.76137   1.00
H2       0.65930    0.99266    0.73675   1.00
C5       0.62432    1.00129    0.78861   1.00
H2       0.63538    1.03137    0.79413   1.00
H2       0.62029    0.98698    0.81754   1.00
C5       0.58553    1.00262    0.76600   1.00
H2       0.57445    0.97268    0.76014   1.00
H2       0.58922    1.01811    0.73770   1.00
C5       0.55447    1.02445    0.79002   1.00
C5       0.73326    1.01105    0.66037   1.00
C5       0.77063    1.11070    0.83991   1.00
H2       0.75683    0.99088    0.66992   1.00
H2       0.74687    1.03712    0.64640   1.00
H2       0.76047    1.08300    0.85368   1.00
H2       0.74421    1.12895    0.83398   1.00
H2       0.77361    1.19030    0.87938   1.00
H2       0.74761    0.94247    0.61344   1.00
H2       0.75449    0.98763    0.58647   1.00
C2       0.74736    0.89605    0.74953   1.00
C3       0.77885    0.91597    0.73196   1.00
O2       0.80347    0.89674    0.70657   1.00
C3       0.71823    0.91826    0.76858   1.00
H1       0.69428    0.90385    0.78318   1.00
C3a      0.78002    0.95713    0.73289   1.00
H1       0.80312    0.97202    0.71739   1.00
C3b      0.71882    0.95922    0.76838   1.00
C4       0.74982    0.97900    0.75038   1.00
O3       0.70901    1.02167    0.69190   1.00
C5       0.83879    0.88720    0.72546   1.00
H2       0.85399    0.91391    0.73630   1.00
C5       0.86449    0.86674    0.69546   1.00
H2       0.83353    0.86726    0.75061   1.00
H2       0.87809    0.88932    0.67646   1.00
H2       0.84500    0.84907    0.67637   1.00
C5       0.89604    0.84082    0.71420   1.00
H2       0.91324    0.85824    0.73547   1.00
C5       0.92391    0.82453    0.68296   1.00
H2       0.88286    0.81507    0.72931   1.00
C5       0.70788    0.99017    0.63039   1.00
H2       0.68875    1.01215    0.61599   1.00
H2       0.68836    0.96952    0.64619   1.00
C5       0.73246    0.96800    0.60002   1.00
C5       0.70592    0.95225    0.56738   1.00
H2       0.82910    1.19286    0.92018   1.00
C5       0.78115    1.18912    0.96270   1.00
H2       0.82003    1.14323    0.94027   1.00
C5       0.51895    1.03337    0.76400   1.00
H2       0.54495    1.00551    0.81565   1.00
H2       0.56728    1.05293    0.80144   1.00
C5       0.95905    0.80497    0.70297   1.00
H2       0.90785    0.80211    0.66437   1.00
H2       0.93459    0.84937    0.66359   1.00
H2       0.68021    0.93602    0.58086   1.00
H2       0.69464    0.97761    0.54906   1.00
C5       0.72934    0.92417    0.54128   1.00
H2       0.75277    1.20116    0.95025   1.00
H2       0.77430    1.16571    0.98530   1.00
H2       0.79828    1.21374    0.97708   1.00
H2       0.52263    1.01820    0.73463   1.00
H2       0.49130    1.02229    0.77880   1.00
H2       0.51661    1.06621    0.75930   1.00
H2       0.94876    0.78889    0.73020   1.00
H2       0.97314    0.78336    0.68199   1.00
H2       0.98127    0.82819    0.71154   1.00
H2       0.72587    0.89307    0.55254   1.00
H2       0.71800    0.92598    0.51007   1.00
H2       0.76148    0.93266    0.54191   1.00
C5       0.36782    0.86715    0.70152   1.00
H2       0.35255    0.84776    0.68054   1.00
H2       0.38910    0.88418    0.68397   1.00
C5       0.33806    0.89459    0.72100   1.00
C5       0.32877    0.92955    0.69436   1.00
H2       0.34985    0.90559    0.74919   1.00
O3       0.52000    0.78786    0.80985   1.00
C4       0.47900    0.74962    0.74982   1.00
C3c      0.45757    0.77877    0.73057   1.00
H1       0.47275    0.80178    0.71524   1.00
C3d      0.45865    0.71959    0.76914   1.00
C3       0.41646    0.77908    0.73121   1.00
O2       0.39752    0.80568    0.70784   1.00
C3       0.41773    0.72022    0.77047   1.00
H1       0.40343    0.69735    0.78681   1.00
C2       0.39561    0.74972    0.75152   1.00
C5       0.52121    0.76594    0.84472   1.00
H2       0.55162    0.76137    0.85532   1.00
H2       0.50734    0.73675    0.84070   1.00
C5       0.49871    0.78861    0.87568   1.00
H2       0.46863    0.79413    0.86462   1.00
H2       0.51302    0.81754    0.87971   1.00
C5       0.49738    0.76600    0.91447   1.00
H2       0.52732    0.76014    0.92555   1.00
H2       0.48189    0.73770    0.91078   1.00
C5       0.47555    0.79002    0.94553   1.00
C5       0.48895    0.66037    0.76674   1.00
C5       0.38930    0.83991    0.72937   1.00
H2       0.50912    0.66992    0.74317   1.00
H2       0.46288    0.64640    0.75313   1.00
H2       0.41700    0.85368    0.73953   1.00
H2       0.37105    0.83398    0.75579   1.00
H2       0.30970    0.87938    0.72639   1.00
H2       0.55753    0.61344    0.75239   1.00
H2       0.51237    0.58647    0.74551   1.00
C2       0.60395    0.74953    0.75264   1.00
C3       0.58403    0.73196    0.72115   1.00
O2       0.60326    0.70657    0.69653   1.00
C3       0.58174    0.76858    0.78177   1.00
H1       0.59615    0.78318    0.80572   1.00
C3a      0.54287    0.73289    0.71998   1.00
H1       0.52798    0.71739    0.69688   1.00
C3b      0.54078    0.76838    0.78118   1.00
C4       0.52100    0.75038    0.75018   1.00
O3       0.47833    0.69190    0.79099   1.00
C5       0.61280    0.72546    0.66121   1.00
H2       0.58609    0.73630    0.64601   1.00
C5       0.63326    0.69546    0.63551   1.00
H2       0.63274    0.75061    0.66647   1.00
H2       0.61068    0.67646    0.62191   1.00
H2       0.65093    0.67637    0.65500   1.00
C5       0.65918    0.71420    0.60396   1.00
H2       0.64176    0.73547    0.58676   1.00
C5       0.67547    0.68296    0.57609   1.00
H2       0.68493    0.72931    0.61714   1.00
C5       0.50983    0.63039    0.79212   1.00
H2       0.48785    0.61599    0.81125   1.00
H2       0.53048    0.64619    0.81164   1.00
C5       0.53200    0.60002    0.76754   1.00
C5       0.54775    0.56738    0.79408   1.00
H2       0.30714    0.92018    0.67090   1.00
C5       0.31088    0.96270    0.71885   1.00
H2       0.35677    0.94027    0.67997   1.00
C5       0.46663    0.76400    0.98105   1.00
H2       0.49449    0.81565    0.95505   1.00
H2       0.44707    0.80144    0.93272   1.00
C5       0.69503    0.70297    0.54095   1.00
H2       0.69789    0.66437    0.59215   1.00
H2       0.65063    0.66359    0.56541   1.00
H2       0.56398    0.58086    0.81979   1.00
H2       0.52239    0.54906    0.80536   1.00
C5       0.57583    0.54128    0.77066   1.00
H2       0.29884    0.95025    0.74723   1.00
H2       0.33429    0.98530    0.72570   1.00
H2       0.28626    0.97708    0.70172   1.00
H2       0.48180    0.73463    0.97737   1.00
H2       0.47771    0.77880    1.00870   1.00
H2       0.43379    0.75930    0.98339   1.00
H2       0.71111    0.73020    0.55124   1.00
H2       0.71664    0.68199    0.52686   1.00
H2       0.67181    0.71154    0.51873   1.00
H2       0.60693    0.55254    0.77413   1.00
H2       0.57402    0.51007    0.78200   1.00
H2       0.56734    0.54191    0.73852   1.00
C5       1.13218    0.86715    0.79848   1.00
H2       1.14745    0.84776    0.81946   1.00
H2       1.11090    0.88418    0.81603   1.00
C5       1.16194    0.89459    0.77900   1.00
C5       1.17123    0.92955    0.80564   1.00
H2       1.15015    0.90559    0.75081   1.00
O3       0.98000    0.78786    0.69015   1.00
C4       1.02100    0.74962    0.75018   1.00
C3c      1.04243    0.77877    0.76943   1.00
H1       1.02725    0.80178    0.78476   1.00
C3d      1.04135    0.71959    0.73086   1.00
C3       1.08354    0.77908    0.76879   1.00
O2       1.10248    0.80568    0.79216   1.00
C3       1.08227    0.72022    0.72953   1.00
H1       1.09657    0.69735    0.71319   1.00
C2       1.10439    0.74972    0.74848   1.00
C5       0.97879    0.76594    0.65528   1.00
H2       0.94838    0.76137    0.64468   1.00
H2       0.99266    0.73675    0.65930   1.00
C5       1.00129    0.78861    0.62432   1.00
H2       1.03137    0.79413    0.63538   1.00
H2       0.98698    0.81754    0.62029   1.00
C5       1.00262    0.76600    0.58553   1.00
H2       0.97268    0.76014    0.57445   1.00
H2       1.01811    0.73770    0.58922   1.00
C5       1.02445    0.79002    0.55447   1.00
C5       1.01105    0.66037    0.73326   1.00
C5       1.11070    0.83991    0.77063   1.00
H2       0.99088    0.66992    0.75683   1.00
H2       1.03712    0.64640    0.74687   1.00
H2       1.08300    0.85368    0.76047   1.00
H2       1.12895    0.83398    0.74421   1.00
H2       1.19030    0.87938    0.77361   1.00
H2       0.94247    0.61344    0.74761   1.00
H2       0.98763    0.58647    0.75449   1.00
C2       0.89605    0.74953    0.74736   1.00
C3       0.91597    0.73196    0.77885   1.00
O2       0.89674    0.70657    0.80347   1.00
C3       0.91826    0.76858    0.71823   1.00
H1       0.90385    0.78318    0.69428   1.00
C3a      0.95713    0.73289    0.78002   1.00
H1       0.97202    0.71739    0.80312   1.00
C3b      0.95922    0.76838    0.71882   1.00
C4       0.97900    0.75038    0.74982   1.00
O3       1.02167    0.69190    0.70901   1.00
C5       0.88720    0.72546    0.83879   1.00
H2       0.91391    0.73630    0.85399   1.00
C5       0.86674    0.69546    0.86449   1.00
H2       0.86726    0.75061    0.83353   1.00
H2       0.88932    0.67646    0.87809   1.00
H2       0.84907    0.67637    0.84500   1.00
C5       0.84082    0.71420    0.89604   1.00
H2       0.85824    0.73547    0.91324   1.00
C5       0.82453    0.68296    0.92391   1.00
H2       0.81507    0.72931    0.88286   1.00
C5       0.99017    0.63039    0.70788   1.00
H2       1.01215    0.61599    0.68875   1.00
H2       0.96952    0.64619    0.68836   1.00
C5       0.96800    0.60002    0.73246   1.00
C5       0.95225    0.56738    0.70592   1.00
H2       1.19286    0.92018    0.82910   1.00
C5       1.18912    0.96270    0.78115   1.00
H2       1.14323    0.94027    0.82003   1.00
C5       1.03337    0.76400    0.51895   1.00
H2       1.00551    0.81565    0.54495   1.00
H2       1.05293    0.80144    0.56728   1.00
C5       0.80497    0.70297    0.95905   1.00
H2       0.80211    0.66437    0.90785   1.00
H2       0.84937    0.66359    0.93459   1.00
H2       0.93602    0.58086    0.68021   1.00
H2       0.97761    0.54906    0.69464   1.00
C5       0.92417    0.54128    0.72934   1.00
H2       1.20116    0.95025    0.75277   1.00
H2       1.16571    0.98530    0.77430   1.00
H2       1.21374    0.97708    0.79828   1.00
H2       1.01820    0.73463    0.52263   1.00
H2       1.02229    0.77880    0.49130   1.00
H2       1.06621    0.75930    0.51661   1.00
H2       0.78889    0.73020    0.94876   1.00
H2       0.78336    0.68199    0.97314   1.00
H2       0.82819    0.71154    0.98127   1.00
H2       0.89307    0.55254    0.72587   1.00
H2       0.92598    0.51007    0.71800   1.00
H2       0.93266    0.54191    0.76148   1.00
C5       0.70152    0.36782    0.86715   1.00
H2       0.68054    0.35255    0.84776   1.00
H2       0.68397    0.38910    0.88418   1.00
C5       0.72100    0.33806    0.89459   1.00
C5       0.69436    0.32877    0.92955   1.00
H2       0.74919    0.34985    0.90559   1.00
O3       0.80985    0.52000    0.78786   1.00
C4       0.74982    0.47900    0.74962   1.00
C3c      0.73057    0.45757    0.77877   1.00
H1       0.71524    0.47275    0.80178   1.00
C3d      0.76914    0.45865    0.71959   1.00
C3       0.73121    0.41646    0.77908   1.00
O2       0.70784    0.39752    0.80568   1.00
C3       0.77047    0.41773    0.72022   1.00
H1       0.78681    0.40343    0.69735   1.00
C2       0.75152    0.39561    0.74972   1.00
C5       0.84472    0.52121    0.76594   1.00
H2       0.85532    0.55162    0.76137   1.00
H2       0.84070    0.50734    0.73675   1.00
C5       0.87568    0.49871    0.78861   1.00
H2       0.86462    0.46863    0.79413   1.00
H2       0.87971    0.51302    0.81754   1.00
C5       0.91447    0.49738    0.76600   1.00
H2       0.92555    0.52732    0.76014   1.00
H2       0.91078    0.48189    0.73770   1.00
C5       0.94553    0.47555    0.79002   1.00
C5       0.76674    0.48895    0.66037   1.00
C5       0.72937    0.38930    0.83991   1.00
H2       0.74317    0.50912    0.66992   1.00
H2       0.75313    0.46288    0.64640   1.00
H2       0.73953    0.41700    0.85368   1.00
H2       0.75579    0.37105    0.83398   1.00
H2       0.72639    0.30970    0.87938   1.00
H2       0.75239    0.55753    0.61344   1.00
H2       0.74551    0.51237    0.58647   1.00
C2       0.75264    0.60395    0.74953   1.00
C3       0.72115    0.58403    0.73196   1.00
O2       0.69653    0.60326    0.70657   1.00
C3       0.78177    0.58174    0.76858   1.00
H1       0.80572    0.59615    0.78318   1.00
C3a      0.71998    0.54287    0.73289   1.00
H1       0.69688    0.52798    0.71739   1.00
C3b      0.78118    0.54078    0.76838   1.00
C4       0.75018    0.52100    0.75038   1.00
O3       0.79099    0.47833    0.69190   1.00
C5       0.66121    0.61280    0.72546   1.00
H2       0.64601    0.58609    0.73630   1.00
C5       0.63551    0.63326    0.69546   1.00
H2       0.66647    0.63274    0.75061   1.00
H2       0.62191    0.61068    0.67646   1.00
H2       0.65500    0.65093    0.67637   1.00
C5       0.60396    0.65918    0.71420   1.00
H2       0.58676    0.64176    0.73547   1.00
C5       0.57609    0.67547    0.68296   1.00
H2       0.61714    0.68493    0.72931   1.00
C5       0.79212    0.50983    0.63039   1.00
H2       0.81125    0.48785    0.61599   1.00
H2       0.81164    0.53048    0.64619   1.00
C5       0.76754    0.53200    0.60002   1.00
C5       0.79408    0.54775    0.56738   1.00
H2       0.67090    0.30714    0.92018   1.00
C5       0.71885    0.31088    0.96270   1.00
H2       0.67997    0.35677    0.94027   1.00
C5       0.98105    0.46663    0.76400   1.00
H2       0.95505    0.49449    0.81565   1.00
H2       0.93272    0.44707    0.80144   1.00
C5       0.54095    0.69503    0.70297   1.00
H2       0.59215    0.69789    0.66437   1.00
H2       0.56541    0.65063    0.66359   1.00
H2       0.81979    0.56398    0.58086   1.00
H2       0.80536    0.52239    0.54906   1.00
C5       0.77066    0.57583    0.54128   1.00
H2       0.74723    0.29884    0.95025   1.00
H2       0.72570    0.33429    0.98530   1.00
H2       0.70172    0.28626    0.97708   1.00
H2       0.97737    0.48180    0.73463   1.00
H2       1.00870    0.47771    0.77880   1.00
H2       0.98339    0.43379    0.75930   1.00
H2       0.55124    0.71111    0.73020   1.00
H2       0.52686    0.71664    0.68199   1.00
H2       0.51873    0.67181    0.71154   1.00
H2       0.77413    0.60693    0.55254   1.00
H2       0.78200    0.57402    0.51007   1.00
H2       0.73852    0.56734    0.54191   1.00
C5       0.86715    0.70152    0.36782   1.00
H2       0.84776    0.68054    0.35255   1.00
H2       0.88418    0.68397    0.38910   1.00
C5       0.89459    0.72100    0.33806   1.00
C5       0.92955    0.69436    0.32877   1.00
H2       0.90559    0.74919    0.34985   1.00
O3       0.78786    0.80985    0.52000   1.00
C4       0.74962    0.74982    0.47900   1.00
C3c      0.77877    0.73057    0.45757   1.00
H1       0.80178    0.71524    0.47275   1.00
C3d      0.71959    0.76914    0.45865   1.00
C3       0.77908    0.73121    0.41646   1.00
O2       0.80568    0.70784    0.39752   1.00
C3       0.72022    0.77047    0.41773   1.00
H1       0.69735    0.78681    0.40343   1.00
C2       0.74972    0.75152    0.39561   1.00
C5       0.76594    0.84472    0.52121   1.00
H2       0.76137    0.85532    0.55162   1.00
H2       0.73675    0.84070    0.50734   1.00
C5       0.78861    0.87568    0.49871   1.00
H2       0.79413    0.86462    0.46863   1.00
H2       0.81754    0.87971    0.51302   1.00
C5       0.76600    0.91447    0.49738   1.00
H2       0.76014    0.92555    0.52732   1.00
H2       0.73770    0.91078    0.48189   1.00
C5       0.79002    0.94553    0.47555   1.00
C5       0.66037    0.76674    0.48895   1.00
C5       0.83991    0.72937    0.38930   1.00
H2       0.66992    0.74317    0.50912   1.00
H2       0.64640    0.75313    0.46288   1.00
H2       0.85368    0.73953    0.41700   1.00
H2       0.83398    0.75579    0.37105   1.00
H2       0.87938    0.72639    0.30970   1.00
H2       0.61344    0.75239    0.55753   1.00
H2       0.58647    0.74551    0.51237   1.00
C2       0.74953    0.75264    0.60395   1.00
C3       0.73196    0.72115    0.58403   1.00
O2       0.70657    0.69653    0.60326   1.00
C3       0.76858    0.78177    0.58174   1.00
H1       0.78318    0.80572    0.59615   1.00
C3a      0.73289    0.71998    0.54287   1.00
H1       0.71739    0.69688    0.52798   1.00
C3b      0.76838    0.78118    0.54078   1.00
C4       0.75038    0.75018    0.52100   1.00
O3       0.69190    0.79099    0.47833   1.00
C5       0.72546    0.66121    0.61280   1.00
H2       0.73630    0.64601    0.58609   1.00
C5       0.69546    0.63551    0.63326   1.00
H2       0.75061    0.66647    0.63274   1.00
H2       0.67646    0.62191    0.61068   1.00
H2       0.67637    0.65500    0.65093   1.00
C5       0.71420    0.60396    0.65918   1.00
H2       0.73547    0.58676    0.64176   1.00
C5       0.68296    0.57609    0.67547   1.00
H2       0.72931    0.61714    0.68493   1.00
C5       0.63039    0.79212    0.50983   1.00
H2       0.61599    0.81125    0.48785   1.00
H2       0.64619    0.81164    0.53048   1.00
C5       0.60002    0.76754    0.53200   1.00
C5       0.56738    0.79408    0.54775   1.00
H2       0.92018    0.67090    0.30714   1.00
C5       0.96270    0.71885    0.31088   1.00
H2       0.94027    0.67997    0.35677   1.00
C5       0.76400    0.98105    0.46663   1.00
H2       0.81565    0.95505    0.49449   1.00
H2       0.80144    0.93272    0.44707   1.00
C5       0.70297    0.54095    0.69503   1.00
H2       0.66437    0.59215    0.69789   1.00
H2       0.66359    0.56541    0.65063   1.00
H2       0.58086    0.81979    0.56398   1.00
H2       0.54906    0.80536    0.52239   1.00
C5       0.54128    0.77066    0.57583   1.00
H2       0.95025    0.74723    0.29884   1.00
H2       0.98530    0.72570    0.33429   1.00
H2       0.97708    0.70172    0.28626   1.00
H2       0.73463    0.97737    0.48180   1.00
H2       0.77880    1.00870    0.47771   1.00
H2       0.75930    0.98339    0.43379   1.00
H2       0.73020    0.55124    0.71111   1.00
H2       0.68199    0.52686    0.71664   1.00
H2       0.71154    0.51873    0.67181   1.00
H2       0.55254    0.77413    0.60693   1.00
H2       0.51007    0.78200    0.57402   1.00
H2       0.54191    0.73852    0.56734   1.00
C5       0.36715    0.29848    1.13218   1.00
H2       0.34776    0.31946    1.14745   1.00
H2       0.38418    0.31603    1.11090   1.00
C5       0.39459    0.27900    1.16194   1.00
C5       0.42955    0.30564    1.17123   1.00
H2       0.40559    0.25081    1.15015   1.00
O3       0.28786    0.19015    0.98000   1.00
C4       0.24962    0.25018    1.02100   1.00
C3c      0.27877    0.26943    1.04243   1.00
H1       0.30178    0.28476    1.02725   1.00
C3d      0.21959    0.23086    1.04135   1.00
C3       0.27908    0.26879    1.08354   1.00
O2       0.30568    0.29216    1.10248   1.00
C3       0.22022    0.22953    1.08227   1.00
H1       0.19735    0.21319    1.09657   1.00
C2       0.24972    0.24848    1.10439   1.00
C5       0.26594    0.15528    0.97879   1.00
H2       0.26137    0.14468    0.94838   1.00
H2       0.23675    0.15930    0.99266   1.00
C5       0.28861    0.12432    1.00129   1.00
H2       0.29413    0.13538    1.03137   1.00
H2       0.31754    0.12029    0.98698   1.00
C5       0.26600    0.08553    1.00262   1.00
H2       0.26014    0.07445    0.97268   1.00
H2       0.23770    0.08922    1.01811   1.00
C5       0.29002    0.05447    1.02445   1.00
C5       0.16037    0.23326    1.01105   1.00
C5       0.33991    0.27063    1.11070   1.00
H2       0.16992    0.25683    0.99088   1.00
H2       0.14640    0.24687    1.03712   1.00
H2       0.35368    0.26047    1.08300   1.00
H2       0.33398    0.24421    1.12895   1.00
H2       0.37938    0.27361    1.19030   1.00
H2       0.11344    0.24761    0.94247   1.00
H2       0.08647    0.25449    0.98763   1.00
C2       0.24953    0.24736    0.89605   1.00
C3       0.23196    0.27885    0.91597   1.00
O2       0.20657    0.30347    0.89674   1.00
C3       0.26858    0.21823    0.91826   1.00
H1       0.28318    0.19428    0.90385   1.00
C3a      0.23289    0.28002    0.95713   1.00
H1       0.21739    0.30312    0.97202   1.00
C3b      0.26838    0.21882    0.95922   1.00
C4       0.25038    0.24982    0.97900   1.00
O3       0.19190    0.20901    1.02167   1.00
C5       0.22546    0.33879    0.88720   1.00
H2       0.23630    0.35399    0.91391   1.00
C5       0.19546    0.36449    0.86674   1.00
H2       0.25061    0.33353    0.86726   1.00
H2       0.17646    0.37809    0.88932   1.00
H2       0.17637    0.34500    0.84907   1.00
C5       0.21420    0.39604    0.84082   1.00
H2       0.23547    0.41324    0.85824   1.00
C5       0.18296    0.42391    0.82453   1.00
H2       0.22931    0.38286    0.81507   1.00
C5       0.13039    0.20788    0.99017   1.00
H2       0.11599    0.18875    1.01215   1.00
H2       0.14619    0.18836    0.96952   1.00
C5       0.10002    0.23246    0.96800   1.00
C5       0.06738    0.20592    0.95225   1.00
H2       0.42018    0.32910    1.19286   1.00
C5       0.46270    0.28115    1.18912   1.00
H2       0.44027    0.32003    1.14323   1.00
C5       0.26400    0.01895    1.03337   1.00
H2       0.31565    0.04495    1.00551   1.00
H2       0.30144    0.06728    1.05293   1.00
C5       0.20297    0.45905    0.80497   1.00
H2       0.16437    0.40785    0.80211   1.00
H2       0.16359    0.43459    0.84937   1.00
H2       0.08086    0.18021    0.93602   1.00
H2       0.04906    0.19464    0.97761   1.00
C5       0.04128    0.22934    0.92417   1.00
H2       0.45025    0.25277    1.20116   1.00
H2       0.48530    0.27430    1.16571   1.00
H2       0.47708    0.29828    1.21374   1.00
H2       0.23463    0.02263    1.01820   1.00
H2       0.27880    -0.00870   1.02229   1.00
H2       0.25930    0.01661    1.06621   1.00
H2       0.23020    0.44876    0.78889   1.00
H2       0.18199    0.47314    0.78336   1.00
H2       0.21154    0.48127    0.82819   1.00
H2       0.05254    0.22587    0.89307   1.00
H2       0.01007    0.21800    0.92598   1.00
H2       0.04191    0.26148    0.93266   1.00
C5       0.29848    0.63218    0.86715   1.00
H2       0.31946    0.64745    0.84776   1.00
H2       0.31603    0.61090    0.88418   1.00
C5       0.27900    0.66194    0.89459   1.00
C5       0.30564    0.67123    0.92955   1.00
H2       0.25081    0.65015    0.90559   1.00
O3       0.19015    0.48000    0.78786   1.00
C4       0.25018    0.52100    0.74962   1.00
C3c      0.26943    0.54243    0.77877   1.00
H1       0.28476    0.52725    0.80178   1.00
C3d      0.23086    0.54135    0.71959   1.00
C3       0.26879    0.58354    0.77908   1.00
O2       0.29216    0.60248    0.80568   1.00
C3       0.22953    0.58227    0.72022   1.00
H1       0.21319    0.59657    0.69735   1.00
C2       0.24848    0.60439    0.74972   1.00
C5       0.15528    0.47879    0.76594   1.00
H2       0.14468    0.44838    0.76137   1.00
H2       0.15930    0.49266    0.73675   1.00
C5       0.12432    0.50129    0.78861   1.00
H2       0.13538    0.53137    0.79413   1.00
H2       0.12029    0.48698    0.81754   1.00
C5       0.08553    0.50262    0.76600   1.00
H2       0.07445    0.47268    0.76014   1.00
H2       0.08922    0.51811    0.73770   1.00
C5       0.05447    0.52445    0.79002   1.00
C5       0.23326    0.51105    0.66037   1.00
C5       0.27063    0.61070    0.83991   1.00
H2       0.25683    0.49088    0.66992   1.00
H2       0.24687    0.53712    0.64640   1.00
H2       0.26047    0.58300    0.85368   1.00
H2       0.24421    0.62895    0.83398   1.00
H2       0.27361    0.69030    0.87938   1.00
H2       0.24761    0.44247    0.61344   1.00
H2       0.25449    0.48763    0.58647   1.00
C2       0.24736    0.39605    0.74953   1.00
C3       0.27885    0.41597    0.73196   1.00
O2       0.30347    0.39674    0.70657   1.00
C3       0.21823    0.41826    0.76858   1.00
H1       0.19428    0.40385    0.78318   1.00
C3a      0.28002    0.45713    0.73289   1.00
H1       0.30312    0.47202    0.71739   1.00
C3b      0.21882    0.45922    0.76838   1.00
C4       0.24982    0.47900    0.75038   1.00
O3       0.20901    0.52167    0.69190   1.00
C5       0.33879    0.38720    0.72546   1.00
H2       0.35399    0.41391    0.73630   1.00
C5       0.36449    0.36674    0.69546   1.00
H2       0.33353    0.36726    0.75061   1.00
H2       0.37809    0.38932    0.67646   1.00
H2       0.34500    0.34907    0.67637   1.00
C5       0.39604    0.34082    0.71420   1.00
H2       0.41324    0.35824    0.73547   1.00
C5       0.42391    0.32453    0.68296   1.00
H2       0.38286    0.31507    0.72931   1.00
C5       0.20788    0.49017    0.63039   1.00
H2       0.18875    0.51215    0.61599   1.00
H2       0.18836    0.46952    0.64619   1.00
C5       0.23246    0.46800    0.60002   1.00
C5       0.20592    0.45225    0.56738   1.00
H2       0.32910    0.69286    0.92018   1.00
C5       0.28115    0.68912    0.96270   1.00
H2       0.32003    0.64323    0.94027   1.00
C5       0.01895    0.53337    0.76400   1.00
H2       0.04495    0.50551    0.81565   1.00
H2       0.06728    0.55293    0.80144   1.00
C5       0.45905    0.30497    0.70297   1.00
H2       0.40785    0.30211    0.66437   1.00
H2       0.43459    0.34937    0.66359   1.00
H2       0.18021    0.43602    0.58086   1.00
H2       0.19464    0.47761    0.54906   1.00
C5       0.22934    0.42417    0.54128   1.00
H2       0.25277    0.70116    0.95025   1.00
H2       0.27430    0.66571    0.98530   1.00
H2       0.29828    0.71374    0.97708   1.00
H2       0.02263    0.51820    0.73463   1.00
H2       -0.00870   0.52229    0.77880   1.00
H2       0.01661    0.56621    0.75930   1.00
H2       0.44876    0.28889    0.73020   1.00
H2       0.47314    0.28336    0.68199   1.00
H2       0.48127    0.32819    0.71154   1.00
H2       0.22587    0.39307    0.55254   1.00
H2       0.21800    0.42598    0.51007   1.00
H2       0.26148    0.43266    0.54191   1.00
C5       -0.13218   0.36715    0.70152   1.00
H2       -0.14745   0.34776    0.68054   1.00
H2       -0.11090   0.38418    0.68397   1.00
C5       -0.16194   0.39459    0.72100   1.00
C5       -0.17123   0.42955    0.69436   1.00
H2       -0.15015   0.40559    0.74919   1.00
O3       0.02000    0.28786    0.80985   1.00
C4       -0.02100   0.24962    0.74982   1.00
C3c      -0.04243   0.27877    0.73057   1.00
H1       -0.02725   0.30178    0.71524   1.00
C3d      -0.04135   0.21959    0.76914   1.00
C3       -0.08354   0.27908    0.73121   1.00
O2       -0.10248   0.30568    0.70784   1.00
C3       -0.08227   0.22022    0.77047   1.00
H1       -0.09657   0.19735    0.78681   1.00
C2       -0.10439   0.24972    0.75152   1.00
C5       0.02121    0.26594    0.84472   1.00
H2       0.05162    0.26137    0.85532   1.00
H2       0.00734    0.23675    0.84070   1.00
C5       -0.00129   0.28861    0.87568   1.00
H2       -0.03137   0.29413    0.86462   1.00
H2       0.01302    0.31754    0.87971   1.00
C5       -0.00262   0.26600    0.91447   1.00
H2       0.02732    0.26014    0.92555   1.00
H2       -0.01811   0.23770    0.91078   1.00
C5       -0.02445   0.29002    0.94553   1.00
C5       -0.01105   0.16037    0.76674   1.00
C5       -0.11070   0.33991    0.72937   1.00
H2       0.00912    0.16992    0.74317   1.00
H2       -0.03712   0.14640    0.75313   1.00
H2       -0.08300   0.35368    0.73953   1.00
H2       -0.12895   0.33398    0.75579   1.00
H2       -0.19030   0.37938    0.72639   1.00
H2       0.05753    0.11344    0.75239   1.00
H2       0.01237    0.08647    0.74551   1.00
C2       0.10395    0.24953    0.75264   1.00
C3       0.08403    0.23196    0.72115   1.00
O2       0.10326    0.20657    0.69653   1.00
C3       0.08174    0.26858    0.78177   1.00
H1       0.09615    0.28318    0.80572   1.00
C3a      0.04287    0.23289    0.71998   1.00
H1       0.02798    0.21739    0.69688   1.00
C3b      0.04078    0.26838    0.78118   1.00
C4       0.02100    0.25038    0.75018   1.00
O3       -0.02167   0.19190    0.79099   1.00
C5       0.11280    0.22546    0.66121   1.00
H2       0.08609    0.23630    0.64601   1.00
C5       0.13326    0.19546    0.63551   1.00
H2       0.13274    0.25061    0.66647   1.00
H2       0.11068    0.17646    0.62191   1.00
H2       0.15093    0.17637    0.65500   1.00
C5       0.15918    0.21420    0.60396   1.00
H2       0.14176    0.23547    0.58676   1.00
C5       0.17547    0.18296    0.57609   1.00
H2       0.18493    0.22931    0.61714   1.00
C5       0.00983    0.13039    0.79212   1.00
H2       -0.01215   0.11599    0.81125   1.00
H2       0.03048    0.14619    0.81164   1.00
C5       0.03200    0.10002    0.76754   1.00
C5       0.04775    0.06738    0.79408   1.00
H2       -0.19286   0.42018    0.67090   1.00
C5       -0.18912   0.46270    0.71885   1.00
H2       -0.14323   0.44027    0.67997   1.00
C5       -0.03337   0.26400    0.98105   1.00
H2       -0.00551   0.31565    0.95505   1.00
H2       -0.05293   0.30144    0.93272   1.00
C5       0.19503    0.20297    0.54095   1.00
H2       0.19789    0.16437    0.59215   1.00
H2       0.15063    0.16359    0.56541   1.00
H2       0.06398    0.08086    0.81979   1.00
H2       0.02239    0.04906    0.80536   1.00
C5       0.07583    0.04128    0.77066   1.00
H2       -0.20116   0.45025    0.74723   1.00
H2       -0.16571   0.48530    0.72570   1.00
H2       -0.21374   0.47708    0.70172   1.00
H2       -0.01820   0.23463    0.97737   1.00
H2       -0.02229   0.27880    1.00870   1.00
H2       -0.06621   0.25930    0.98339   1.00
H2       0.21111    0.23020    0.55124   1.00
H2       0.21664    0.18199    0.52686   1.00
H2       0.17181    0.21154    0.51873   1.00
H2       0.10693    0.05254    0.77413   1.00
H2       0.07402    0.01007    0.78200   1.00
H2       0.06734    0.04191    0.73852   1.00
C5       0.63218    0.36715    0.79848   1.00
H2       0.64745    0.34776    0.81946   1.00
H2       0.61090    0.38418    0.81603   1.00
C5       0.66194    0.39459    0.77900   1.00
C5       0.67123    0.42955    0.80564   1.00
H2       0.65015    0.40559    0.75081   1.00
O3       0.48000    0.28786    0.69015   1.00
C4       0.52100    0.24962    0.75018   1.00
C3c      0.54243    0.27877    0.76943   1.00
H1       0.52725    0.30178    0.78476   1.00
C3d      0.54135    0.21959    0.73086   1.00
C3       0.58354    0.27908    0.76879   1.00
O2       0.60248    0.30568    0.79216   1.00
C3       0.58227    0.22022    0.72953   1.00
H1       0.59657    0.19735    0.71319   1.00
C2       0.60439    0.24972    0.74848   1.00
C5       0.47879    0.26594    0.65528   1.00
H2       0.44838    0.26137    0.64468   1.00
H2       0.49266    0.23675    0.65930   1.00
C5       0.50129    0.28861    0.62432   1.00
H2       0.53137    0.29413    0.63538   1.00
H2       0.48698    0.31754    0.62029   1.00
C5       0.50262    0.26600    0.58553   1.00
H2       0.47268    0.26014    0.57445   1.00
H2       0.51811    0.23770    0.58922   1.00
C5       0.52445    0.29002    0.55447   1.00
C5       0.51105    0.16037    0.73326   1.00
C5       0.61070    0.33991    0.77063   1.00
H2       0.49088    0.16992    0.75683   1.00
H2       0.53712    0.14640    0.74687   1.00
H2       0.58300    0.35368    0.76047   1.00
H2       0.62895    0.33398    0.74421   1.00
H2       0.69030    0.37938    0.77361   1.00
H2       0.44247    0.11344    0.74761   1.00
H2       0.48763    0.08647    0.75449   1.00
C2       0.39605    0.24953    0.74736   1.00
C3       0.41597    0.23196    0.77885   1.00
O2       0.39674    0.20657    0.80347   1.00
C3       0.41826    0.26858    0.71823   1.00
H1       0.40385    0.28318    0.69428   1.00
C3a      0.45713    0.23289    0.78002   1.00
H1       0.47202    0.21739    0.80312   1.00
C3b      0.45922    0.26838    0.71882   1.00
C4       0.47900    0.25038    0.74982   1.00
O3       0.52167    0.19190    0.70901   1.00
C5       0.38720    0.22546    0.83879   1.00
H2       0.41391    0.23630    0.85399   1.00
C5       0.36674    0.19546    0.86449   1.00
H2       0.36726    0.25061    0.83353   1.00
H2       0.38932    0.17646    0.87809   1.00
H2       0.34907    0.17637    0.84500   1.00
C5       0.34082    0.21420    0.89604   1.00
H2       0.35824    0.23547    0.91324   1.00
C5       0.32453    0.18296    0.92391   1.00
H2       0.31507    0.22931    0.88286   1.00
C5       0.49017    0.13039    0.70788   1.00
H2       0.51215    0.11599    0.68875   1.00
H2       0.46952    0.14619    0.68836   1.00
C5       0.46800    0.10002    0.73246   1.00
C5       0.45225    0.06738    0.70592   1.00
H2       0.69286    0.42018    0.82910   1.00
C5       0.68912    0.46270    0.78115   1.00
H2       0.64323    0.44027    0.82003   1.00
C5       0.53337    0.26400    0.51895   1.00
H2       0.50551    0.31565    0.54495   1.00
H2       0.55293    0.30144    0.56728   1.00
C5       0.30497    0.20297    0.95905   1.00
H2       0.30211    0.16437    0.90785   1.00
H2       0.34937    0.16359    0.93459   1.00
H2       0.43602    0.08086    0.68021   1.00
H2       0.47761    0.04906    0.69464   1.00
C5       0.42417    0.04128    0.72934   1.00
H2       0.70116    0.45025    0.75277   1.00
H2       0.66571    0.48530    0.77430   1.00
H2       0.71374    0.47708    0.79828   1.00
H2       0.51820    0.23463    0.52263   1.00
H2       0.52229    0.27880    0.49130   1.00
H2       0.56621    0.25930    0.51661   1.00
H2       0.28889    0.23020    0.94876   1.00
H2       0.28336    0.18199    0.97314   1.00
H2       0.32819    0.21154    0.98127   1.00
H2       0.39307    0.05254    0.72587   1.00
H2       0.42598    0.01007    0.71800   1.00
H2       0.43266    0.04191    0.76148   1.00
C5       0.20152    -0.13218   0.86715   1.00
H2       0.18054    -0.14745   0.84776   1.00
H2       0.18397    -0.11090   0.88418   1.00
C5       0.22100    -0.16194   0.89459   1.00
C5       0.19436    -0.17123   0.92955   1.00
H2       0.24919    -0.15015   0.90559   1.00
O3       0.30985    0.02000    0.78786   1.00
C4       0.24982    -0.02100   0.74962   1.00
C3c      0.23057    -0.04243   0.77877   1.00
H1       0.21524    -0.02725   0.80178   1.00
C3d      0.26914    -0.04135   0.71959   1.00
C3       0.23121    -0.08354   0.77908   1.00
O2       0.20784    -0.10248   0.80568   1.00
C3       0.27047    -0.08227   0.72022   1.00
H1       0.28681    -0.09657   0.69735   1.00
C2       0.25152    -0.10439   0.74972   1.00
C5       0.34472    0.02121    0.76594   1.00
H2       0.35532    0.05162    0.76137   1.00
H2       0.34070    0.00734    0.73675   1.00
C5       0.37568    -0.00129   0.78861   1.00
H2       0.36462    -0.03137   0.79413   1.00
H2       0.37971    0.01302    0.81754   1.00
C5       0.41447    -0.00262   0.76600   1.00
H2       0.42555    0.02732    0.76014   1.00
H2       0.41078    -0.01811   0.73770   1.00
C5       0.44553    -0.02445   0.79002   1.00
C5       0.26674    -0.01105   0.66037   1.00
C5       0.22937    -0.11070   0.83991   1.00
H2       0.24317    0.00912    0.66992   1.00
H2       0.25313    -0.03712   0.64640   1.00
H2       0.23953    -0.08300   0.85368   1.00
H2       0.25579    -0.12895   0.83398   1.00
H2       0.22639    -0.19030   0.87938   1.00
H2       0.25239    0.05753    0.61344   1.00
H2       0.24551    0.01237    0.58647   1.00
C2       0.25264    0.10395    0.74953   1.00
C3       0.22115    0.08403    0.73196   1.00
O2       0.19653    0.10326    0.70657   1.00
C3       0.28177    0.08174    0.76858   1.00
H1       0.30572    0.09615    0.78318   1.00
C3a      0.21998    0.04287    0.73289   1.00
H1       0.19688    0.02798    0.71739   1.00
C3b      0.28118    0.04078    0.76838   1.00
C4       0.25018    0.02100    0.75038   1.00
O3       0.29099    -0.02167   0.69190   1.00
C5       0.16121    0.11280    0.72546   1.00
H2       0.14601    0.08609    0.73630   1.00
C5       0.13551    0.13326    0.69546   1.00
H2       0.16647    0.13274    0.75061   1.00
H2       0.12191    0.11068    0.67646   1.00
H2       0.15500    0.15093    0.67637   1.00
C5       0.10396    0.15918    0.71420   1.00
H2       0.08676    0.14176    0.73547   1.00
C5       0.07609    0.17547    0.68296   1.00
H2       0.11714    0.18493    0.72931   1.00
C5       0.29212    0.00983    0.63039   1.00
H2       0.31125    -0.01215   0.61599   1.00
H2       0.31164    0.03048    0.64619   1.00
C5       0.26754    0.03200    0.60002   1.00
C5       0.29408    0.04775    0.56738   1.00
H2       0.17090    -0.19286   0.92018   1.00
C5       0.21885    -0.18912   0.96270   1.00
H2       0.17997    -0.14323   0.94027   1.00
C5       0.48105    -0.03337   0.76400   1.00
H2       0.45505    -0.00551   0.81565   1.00
H2       0.43272    -0.05293   0.80144   1.00
C5       0.04095    0.19503    0.70297   1.00
H2       0.09215    0.19789    0.66437   1.00
H2       0.06541    0.15063    0.66359   1.00
H2       0.31979    0.06398    0.58086   1.00
H2       0.30536    0.02239    0.54906   1.00
C5       0.27066    0.07583    0.54128   1.00
H2       0.24723    -0.20116   0.95025   1.00
H2       0.22570    -0.16571   0.98530   1.00
H2       0.20172    -0.21374   0.97708   1.00
H2       0.47737    -0.01820   0.73463   1.00
H2       0.50870    -0.02229   0.77880   1.00
H2       0.48339    -0.06621   0.75930   1.00
H2       0.05124    0.21111    0.73020   1.00
H2       0.02686    0.21664    0.68199   1.00
H2       0.01873    0.17181    0.71154   1.00
H2       0.27413    0.10693    0.55254   1.00
H2       0.28200    0.07402    0.51007   1.00
H2       0.23852    0.06734    0.54191   1.00
C5       0.36715    0.20152    0.36782   1.00
H2       0.34776    0.18054    0.35255   1.00
H2       0.38418    0.18397    0.38910   1.00
C5       0.39459    0.22100    0.33806   1.00
C5       0.42955    0.19436    0.32877   1.00
H2       0.40559    0.24919    0.34985   1.00
O3       0.28786    0.30985    0.52000   1.00
C4       0.24962    0.24982    0.47900   1.00
C3c      0.27877    0.23057    0.45757   1.00
H1       0.30178    0.21524    0.47275   1.00
C3d      0.21959    0.26914    0.45865   1.00
C3       0.27908    0.23121    0.41646   1.00
O2       0.30568    0.20784    0.39752   1.00
C3       0.22022    0.27047    0.41773   1.00
H1       0.19735    0.28681    0.40343   1.00
C2       0.24972    0.25152    0.39561   1.00
C5       0.26594    0.34472    0.52121   1.00
H2       0.26137    0.35532    0.55162   1.00
H2       0.23675    0.34070    0.50734   1.00
C5       0.28861    0.37568    0.49871   1.00
H2       0.29413    0.36462    0.46863   1.00
H2       0.31754    0.37971    0.51302   1.00
C5       0.26600    0.41447    0.49738   1.00
H2       0.26014    0.42555    0.52732   1.00
H2       0.23770    0.41078    0.48189   1.00
C5       0.29002    0.44553    0.47555   1.00
C5       0.16037    0.26674    0.48895   1.00
C5       0.33991    0.22937    0.38930   1.00
H2       0.16992    0.24317    0.50912   1.00
H2       0.14640    0.25313    0.46288   1.00
H2       0.35368    0.23953    0.41700   1.00
H2       0.33398    0.25579    0.37105   1.00
H2       0.37938    0.22639    0.30970   1.00
H2       0.11344    0.25239    0.55753   1.00
H2       0.08647    0.24551    0.51237   1.00
C2       0.24953    0.25264    0.60395   1.00
C3       0.23196    0.22115    0.58403   1.00
O2       0.20657    0.19653    0.60326   1.00
C3       0.26858    0.28177    0.58174   1.00
H1       0.28318    0.30572    0.59615   1.00
C3a      0.23289    0.21998    0.54287   1.00
H1       0.21739    0.19688    0.52798   1.00
C3b      0.26838    0.28118    0.54078   1.00
C4       0.25038    0.25018    0.52100   1.00
O3       0.19190    0.29099    0.47833   1.00
C5       0.22546    0.16121    0.61280   1.00
H2       0.23630    0.14601    0.58609   1.00
C5       0.19546    0.13551    0.63326   1.00
H2       0.25061    0.16647    0.63274   1.00
H2       0.17646    0.12191    0.61068   1.00
H2       0.17637    0.15500    0.65093   1.00
C5       0.21420    0.10396    0.65918   1.00
H2       0.23547    0.08676    0.64176   1.00
C5       0.18296    0.07609    0.67547   1.00
H2       0.22931    0.11714    0.68493   1.00
C5       0.13039    0.29212    0.50983   1.00
H2       0.11599    0.31125    0.48785   1.00
H2       0.14619    0.31164    0.53048   1.00
C5       0.10002    0.26754    0.53200   1.00
C5       0.06738    0.29408    0.54775   1.00
H2       0.42018    0.17090    0.30714   1.00
C5       0.46270    0.21885    0.31088   1.00
H2       0.44027    0.17997    0.35677   1.00
C5       0.26400    0.48105    0.46663   1.00
H2       0.31565    0.45505    0.49449   1.00
H2       0.30144    0.43272    0.44707   1.00
C5       0.20297    0.04095    0.69503   1.00
H2       0.16437    0.09215    0.69789   1.00
H2       0.16359    0.06541    0.65063   1.00
H2       0.08086    0.31979    0.56398   1.00
H2       0.04906    0.30536    0.52239   1.00
C5       0.04128    0.27066    0.57583   1.00
H2       0.45025    0.24723    0.29884   1.00
H2       0.48530    0.22570    0.33429   1.00
H2       0.47708    0.20172    0.28626   1.00
H2       0.23463    0.47737    0.48180   1.00
H2       0.27880    0.50870    0.47771   1.00
H2       0.25930    0.48339    0.43379   1.00
H2       0.23020    0.05124    0.71111   1.00
H2       0.18199    0.02686    0.71664   1.00
H2       0.21154    0.01873    0.67181   1.00
H2       0.05254    0.27413    0.60693   1.00
H2       0.01007    0.28200    0.57402   1.00
H2       0.04191    0.23852    0.56734   1.00
C5       0.36715    0.79848    0.63218   1.00
H2       0.34776    0.81946    0.64745   1.00
H2       0.38418    0.81603    0.61090   1.00
C5       0.39459    0.77900    0.66194   1.00
C5       0.42955    0.80564    0.67123   1.00
H2       0.40559    0.75081    0.65015   1.00
O3       0.28786    0.69015    0.48000   1.00
C4       0.24962    0.75018    0.52100   1.00
C3c      0.27877    0.76943    0.54243   1.00
H1       0.30178    0.78476    0.52725   1.00
C3d      0.21959    0.73086    0.54135   1.00
C3       0.27908    0.76879    0.58354   1.00
O2       0.30568    0.79216    0.60248   1.00
C3       0.22022    0.72953    0.58227   1.00
H1       0.19735    0.71319    0.59657   1.00
C2       0.24972    0.74848    0.60439   1.00
C5       0.26594    0.65528    0.47879   1.00
H2       0.26137    0.64468    0.44838   1.00
H2       0.23675    0.65930    0.49266   1.00
C5       0.28861    0.62432    0.50129   1.00
H2       0.29413    0.63538    0.53137   1.00
H2       0.31754    0.62029    0.48698   1.00
C5       0.26600    0.58553    0.50262   1.00
H2       0.26014    0.57445    0.47268   1.00
H2       0.23770    0.58922    0.51811   1.00
C5       0.29002    0.55447    0.52445   1.00
C5       0.16037    0.73326    0.51105   1.00
C5       0.33991    0.77063    0.61070   1.00
H2       0.16992    0.75683    0.49088   1.00
H2       0.14640    0.74687    0.53712   1.00
H2       0.35368    0.76047    0.58300   1.00
H2       0.33398    0.74421    0.62895   1.00
H2       0.37938    0.77361    0.69030   1.00
H2       0.11344    0.74761    0.44247   1.00
H2       0.08647    0.75449    0.48763   1.00
C2       0.24953    0.74736    0.39605   1.00
C3       0.23196    0.77885    0.41597   1.00
O2       0.20657    0.80347    0.39674   1.00
C3       0.26858    0.71823    0.41826   1.00
H1       0.28318    0.69428    0.40385   1.00
C3a      0.23289    0.78002    0.45713   1.00
H1       0.21739    0.80312    0.47202   1.00
C3b      0.26838    0.71882    0.45922   1.00
C4       0.25038    0.74982    0.47900   1.00
O3       0.19190    0.70901    0.52167   1.00
C5       0.22546    0.83879    0.38720   1.00
H2       0.23630    0.85399    0.41391   1.00
C5       0.19546    0.86449    0.36674   1.00
H2       0.25061    0.83353    0.36726   1.00
H2       0.17646    0.87809    0.38932   1.00
H2       0.17637    0.84500    0.34907   1.00
C5       0.21420    0.89604    0.34082   1.00
H2       0.23547    0.91324    0.35824   1.00
C5       0.18296    0.92391    0.32453   1.00
H2       0.22931    0.88286    0.31507   1.00
C5       0.13039    0.70788    0.49017   1.00
H2       0.11599    0.68875    0.51215   1.00
H2       0.14619    0.68836    0.46952   1.00
C5       0.10002    0.73246    0.46800   1.00
C5       0.06738    0.70592    0.45225   1.00
H2       0.42018    0.82910    0.69286   1.00
C5       0.46270    0.78115    0.68912   1.00
H2       0.44027    0.82003    0.64323   1.00
C5       0.26400    0.51895    0.53337   1.00
H2       0.31565    0.54495    0.50551   1.00
H2       0.30144    0.56728    0.55293   1.00
C5       0.20297    0.95905    0.30497   1.00
H2       0.16437    0.90785    0.30211   1.00
H2       0.16359    0.93459    0.34937   1.00
H2       0.08086    0.68021    0.43602   1.00
H2       0.04906    0.69464    0.47761   1.00
C5       0.04128    0.72934    0.42417   1.00
H2       0.45025    0.75277    0.70116   1.00
H2       0.48530    0.77430    0.66571   1.00
H2       0.47708    0.79828    0.71374   1.00
H2       0.23463    0.52263    0.51820   1.00
H2       0.27880    0.49130    0.52229   1.00
H2       0.25930    0.51661    0.56621   1.00
H2       0.23020    0.94876    0.28889   1.00
H2       0.18199    0.97314    0.28336   1.00
H2       0.21154    0.98127    0.32819   1.00
H2       0.05254    0.72587    0.39307   1.00
H2       0.01007    0.71800    0.42598   1.00
H2       0.04191    0.76148    0.43266   1.00
C5       0.29848    1.13218    0.36715   1.00
H2       0.31946    1.14745    0.34776   1.00
H2       0.31603    1.11090    0.38418   1.00
C5       0.27900    1.16194    0.39459   1.00
C5       0.30564    1.17123    0.42955   1.00
H2       0.25081    1.15015    0.40559   1.00
O3       0.19015    0.98000    0.28786   1.00
C4       0.25018    1.02100    0.24962   1.00
C3c      0.26943    1.04243    0.27877   1.00
H1       0.28476    1.02725    0.30178   1.00
C3d      0.23086    1.04135    0.21959   1.00
C3       0.26879    1.08354    0.27908   1.00
O2       0.29216    1.10248    0.30568   1.00
C3       0.22953    1.08227    0.22022   1.00
H1       0.21319    1.09657    0.19735   1.00
C2       0.24848    1.10439    0.24972   1.00
C5       0.15528    0.97879    0.26594   1.00
H2       0.14468    0.94838    0.26137   1.00
H2       0.15930    0.99266    0.23675   1.00
C5       0.12432    1.00129    0.28861   1.00
H2       0.13538    1.03137    0.29413   1.00
H2       0.12029    0.98698    0.31754   1.00
C5       0.08553    1.00262    0.26600   1.00
H2       0.07445    0.97268    0.26014   1.00
H2       0.08922    1.01811    0.23770   1.00
C5       0.05447    1.02445    0.29002   1.00
C5       0.23326    1.01105    0.16037   1.00
C5       0.27063    1.11070    0.33991   1.00
H2       0.25683    0.99088    0.16992   1.00
H2       0.24687    1.03712    0.14640   1.00
H2       0.26047    1.08300    0.35368   1.00
H2       0.24421    1.12895    0.33398   1.00
H2       0.27361    1.19030    0.37938   1.00
H2       0.24761    0.94247    0.11344   1.00
H2       0.25449    0.98763    0.08647   1.00
C2       0.24736    0.89605    0.24953   1.00
C3       0.27885    0.91597    0.23196   1.00
O2       0.30347    0.89674    0.20657   1.00
C3       0.21823    0.91826    0.26858   1.00
H1       0.19428    0.90385    0.28318   1.00
C3a      0.28002    0.95713    0.23289   1.00
H1       0.30312    0.97202    0.21739   1.00
C3b      0.21882    0.95922    0.26838   1.00
C4       0.24982    0.97900    0.25038   1.00
O3       0.20901    1.02167    0.19190   1.00
C5       0.33879    0.88720    0.22546   1.00
H2       0.35399    0.91391    0.23630   1.00
C5       0.36449    0.86674    0.19546   1.00
H2       0.33353    0.86726    0.25061   1.00
H2       0.37809    0.88932    0.17646   1.00
H2       0.34500    0.84907    0.17637   1.00
C5       0.39604    0.84082    0.21420   1.00
H2       0.41324    0.85824    0.23547   1.00
C5       0.42391    0.82453    0.18296   1.00
H2       0.38286    0.81507    0.22931   1.00
C5       0.20788    0.99017    0.13039   1.00
H2       0.18875    1.01215    0.11599   1.00
H2       0.18836    0.96952    0.14619   1.00
C5       0.23246    0.96800    0.10002   1.00
C5       0.20592    0.95225    0.06738   1.00
H2       0.32910    1.19286    0.42018   1.00
C5       0.28115    1.18912    0.46270   1.00
H2       0.32003    1.14323    0.44027   1.00
C5       0.01895    1.03337    0.26400   1.00
H2       0.04495    1.00551    0.31565   1.00
H2       0.06728    1.05293    0.30144   1.00
C5       0.45905    0.80497    0.20297   1.00
H2       0.40785    0.80211    0.16437   1.00
H2       0.43459    0.84937    0.16359   1.00
H2       0.18021    0.93602    0.08086   1.00
H2       0.19464    0.97761    0.04906   1.00
C5       0.22934    0.92417    0.04128   1.00
H2       0.25277    1.20116    0.45025   1.00
H2       0.27430    1.16571    0.48530   1.00
H2       0.29828    1.21374    0.47708   1.00
H2       0.02263    1.01820    0.23463   1.00
H2       -0.00870   1.02229    0.27880   1.00
H2       0.01661    1.06621    0.25930   1.00
H2       0.44876    0.78889    0.23020   1.00
H2       0.47314    0.78336    0.18199   1.00
H2       0.48127    0.82819    0.21154   1.00
H2       0.22587    0.89307    0.05254   1.00
H2       0.21800    0.92598    0.01007   1.00
H2       0.26148    0.93266    0.04191   1.00
C5       -0.13218   0.86715    0.20152   1.00
H2       -0.14745   0.84776    0.18054   1.00
H2       -0.11090   0.88418    0.18397   1.00
C5       -0.16194   0.89459    0.22100   1.00
C5       -0.17123   0.92955    0.19436   1.00
H2       -0.15015   0.90559    0.24919   1.00
O3       0.02000    0.78786    0.30985   1.00
C4       -0.02100   0.74962    0.24982   1.00
C3c      -0.04243   0.77877    0.23057   1.00
H1       -0.02725   0.80178    0.21524   1.00
C3d      -0.04135   0.71959    0.26914   1.00
C3       -0.08354   0.77908    0.23121   1.00
O2       -0.10248   0.80568    0.20784   1.00
C3       -0.08227   0.72022    0.27047   1.00
H1       -0.09657   0.69735    0.28681   1.00
C2       -0.10439   0.74972    0.25152   1.00
C5       0.02121    0.76594    0.34472   1.00
H2       0.05162    0.76137    0.35532   1.00
H2       0.00734    0.73675    0.34070   1.00
C5       -0.00129   0.78861    0.37568   1.00
H2       -0.03137   0.79413    0.36462   1.00
H2       0.01302    0.81754    0.37971   1.00
C5       -0.00262   0.76600    0.41447   1.00
H2       0.02732    0.76014    0.42555   1.00
H2       -0.01811   0.73770    0.41078   1.00
C5       -0.02445   0.79002    0.44553   1.00
C5       -0.01105   0.66037    0.26674   1.00
C5       -0.11070   0.83991    0.22937   1.00
H2       0.00912    0.66992    0.24317   1.00
H2       -0.03712   0.64640    0.25313   1.00
H2       -0.08300   0.85368    0.23953   1.00
H2       -0.12895   0.83398    0.25579   1.00
H2       -0.19030   0.87938    0.22639   1.00
H2       0.05753    0.61344    0.25239   1.00
H2       0.01237    0.58647    0.24551   1.00
C2       0.10395    0.74953    0.25264   1.00
C3       0.08403    0.73196    0.22115   1.00
O2       0.10326    0.70657    0.19653   1.00
C3       0.08174    0.76858    0.28177   1.00
H1       0.09615    0.78318    0.30572   1.00
C3a      0.04287    0.73289    0.21998   1.00
H1       0.02798    0.71739    0.19688   1.00
C3b      0.04078    0.76838    0.28118   1.00
C4       0.02100    0.75038    0.25018   1.00
O3       -0.02167   0.69190    0.29099   1.00
C5       0.11280    0.72546    0.16121   1.00
H2       0.08609    0.73630    0.14601   1.00
C5       0.13326    0.69546    0.13551   1.00
H2       0.13274    0.75061    0.16647   1.00
H2       0.11068    0.67646    0.12191   1.00
H2       0.15093    0.67637    0.15500   1.00
C5       0.15918    0.71420    0.10396   1.00
H2       0.14176    0.73547    0.08676   1.00
C5       0.17547    0.68296    0.07609   1.00
H2       0.18493    0.72931    0.11714   1.00
C5       0.00983    0.63039    0.29212   1.00
H2       -0.01215   0.61599    0.31125   1.00
H2       0.03048    0.64619    0.31164   1.00
C5       0.03200    0.60002    0.26754   1.00
C5       0.04775    0.56738    0.29408   1.00
H2       -0.19286   0.92018    0.17090   1.00
C5       -0.18912   0.96270    0.21885   1.00
H2       -0.14323   0.94027    0.17997   1.00
C5       -0.03337   0.76400    0.48105   1.00
H2       -0.00551   0.81565    0.45505   1.00
H2       -0.05293   0.80144    0.43272   1.00
C5       0.19503    0.70297    0.04095   1.00
H2       0.19789    0.66437    0.09215   1.00
H2       0.15063    0.66359    0.06541   1.00
H2       0.06398    0.58086    0.31979   1.00
H2       0.02239    0.54906    0.30536   1.00
C5       0.07583    0.54128    0.27066   1.00
H2       -0.20116   0.95025    0.24723   1.00
H2       -0.16571   0.98530    0.22570   1.00
H2       -0.21374   0.97708    0.20172   1.00
H2       -0.01820   0.73463    0.47737   1.00
H2       -0.02229   0.77880    0.50870   1.00
H2       -0.06621   0.75930    0.48339   1.00
H2       0.21111    0.73020    0.05124   1.00
H2       0.21664    0.68199    0.02686   1.00
H2       0.17181    0.71154    0.01873   1.00
H2       0.10693    0.55254    0.27413   1.00
H2       0.07402    0.51007    0.28200   1.00
H2       0.06734    0.54191    0.23852   1.00
C5       0.63218    0.86715    0.29848   1.00
H2       0.64745    0.84776    0.31946   1.00
H2       0.61090    0.88418    0.31603   1.00
C5       0.66194    0.89459    0.27900   1.00
C5       0.67123    0.92955    0.30564   1.00
H2       0.65015    0.90559    0.25081   1.00
O3       0.48000    0.78786    0.19015   1.00
C4       0.52100    0.74962    0.25018   1.00
C3c      0.54243    0.77877    0.26943   1.00
H1       0.52725    0.80178    0.28476   1.00
C3d      0.54135    0.71959    0.23086   1.00
C3       0.58354    0.77908    0.26879   1.00
O2       0.60248    0.80568    0.29216   1.00
C3       0.58227    0.72022    0.22953   1.00
H1       0.59657    0.69735    0.21319   1.00
C2       0.60439    0.74972    0.24848   1.00
C5       0.47879    0.76594    0.15528   1.00
H2       0.44838    0.76137    0.14468   1.00
H2       0.49266    0.73675    0.15930   1.00
C5       0.50129    0.78861    0.12432   1.00
H2       0.53137    0.79413    0.13538   1.00
H2       0.48698    0.81754    0.12029   1.00
C5       0.50262    0.76600    0.08553   1.00
H2       0.47268    0.76014    0.07445   1.00
H2       0.51811    0.73770    0.08922   1.00
C5       0.52445    0.79002    0.05447   1.00
C5       0.51105    0.66037    0.23326   1.00
C5       0.61070    0.83991    0.27063   1.00
H2       0.49088    0.66992    0.25683   1.00
H2       0.53712    0.64640    0.24687   1.00
H2       0.58300    0.85368    0.26047   1.00
H2       0.62895    0.83398    0.24421   1.00
H2       0.69030    0.87938    0.27361   1.00
H2       0.44247    0.61344    0.24761   1.00
H2       0.48763    0.58647    0.25449   1.00
C2       0.39605    0.74953    0.24736   1.00
C3       0.41597    0.73196    0.27885   1.00
O2       0.39674    0.70657    0.30347   1.00
C3       0.41826    0.76858    0.21823   1.00
H1       0.40385    0.78318    0.19428   1.00
C3a      0.45713    0.73289    0.28002   1.00
H1       0.47202    0.71739    0.30312   1.00
C3b      0.45922    0.76838    0.21882   1.00
C4       0.47900    0.75038    0.24982   1.00
O3       0.52167    0.69190    0.20901   1.00
C5       0.38720    0.72546    0.33879   1.00
H2       0.41391    0.73630    0.35399   1.00
C5       0.36674    0.69546    0.36449   1.00
H2       0.36726    0.75061    0.33353   1.00
H2       0.38932    0.67646    0.37809   1.00
H2       0.34907    0.67637    0.34500   1.00
C5       0.34082    0.71420    0.39604   1.00
H2       0.35824    0.73547    0.41324   1.00
C5       0.32453    0.68296    0.42391   1.00
H2       0.31507    0.72931    0.38286   1.00
C5       0.49017    0.63039    0.20788   1.00
H2       0.51215    0.61599    0.18875   1.00
H2       0.46952    0.64619    0.18836   1.00
C5       0.46800    0.60002    0.23246   1.00
C5       0.45225    0.56738    0.20592   1.00
H2       0.69286    0.92018    0.32910   1.00
C5       0.68912    0.96270    0.28115   1.00
H2       0.64323    0.94027    0.32003   1.00
C5       0.53337    0.76400    0.01895   1.00
H2       0.50551    0.81565    0.04495   1.00
H2       0.55293    0.80144    0.06728   1.00
C5       0.30497    0.70297    0.45905   1.00
H2       0.30211    0.66437    0.40785   1.00
H2       0.34937    0.66359    0.43459   1.00
H2       0.43602    0.58086    0.18021   1.00
H2       0.47761    0.54906    0.19464   1.00
C5       0.42417    0.54128    0.22934   1.00
H2       0.70116    0.95025    0.25277   1.00
H2       0.66571    0.98530    0.27430   1.00
H2       0.71374    0.97708    0.29828   1.00
H2       0.51820    0.73463    0.02263   1.00
H2       0.52229    0.77880    -0.00870   1.00
H2       0.56621    0.75930    0.01661   1.00
H2       0.28889    0.73020    0.44876   1.00
H2       0.28336    0.68199    0.47314   1.00
H2       0.32819    0.71154    0.48127   1.00
H2       0.39307    0.55254    0.22587   1.00
H2       0.42598    0.51007    0.21800   1.00
H2       0.43266    0.54191    0.26148   1.00
C5       0.20152    0.36782    0.36715   1.00
H2       0.18054    0.35255    0.34776   1.00
H2       0.18397    0.38910    0.38418   1.00
C5       0.22100    0.33806    0.39459   1.00
C5       0.19436    0.32877    0.42955   1.00
H2       0.24919    0.34985    0.40559   1.00
O3       0.30985    0.52000    0.28786   1.00
C4       0.24982    0.47900    0.24962   1.00
C3c      0.23057    0.45757    0.27877   1.00
H1       0.21524    0.47275    0.30178   1.00
C3d      0.26914    0.45865    0.21959   1.00
C3       0.23121    0.41646    0.27908   1.00
O2       0.20784    0.39752    0.30568   1.00
C3       0.27047    0.41773    0.22022   1.00
H1       0.28681    0.40343    0.19735   1.00
C2       0.25152    0.39561    0.24972   1.00
C5       0.34472    0.52121    0.26594   1.00
H2       0.35532    0.55162    0.26137   1.00
H2       0.34070    0.50734    0.23675   1.00
C5       0.37568    0.49871    0.28861   1.00
H2       0.36462    0.46863    0.29413   1.00
H2       0.37971    0.51302    0.31754   1.00
C5       0.41447    0.49738    0.26600   1.00
H2       0.42555    0.52732    0.26014   1.00
H2       0.41078    0.48189    0.23770   1.00
C5       0.44553    0.47555    0.29002   1.00
C5       0.26674    0.48895    0.16037   1.00
C5       0.22937    0.38930    0.33991   1.00
H2       0.24317    0.50912    0.16992   1.00
H2       0.25313    0.46288    0.14640   1.00
H2       0.23953    0.41700    0.35368   1.00
H2       0.25579    0.37105    0.33398   1.00
H2       0.22639    0.30970    0.37938   1.00
H2       0.25239    0.55753    0.11344   1.00
H2       0.24551    0.51237    0.08647   1.00
C2       0.25264    0.60395    0.24953   1.00
C3       0.22115    0.58403    0.23196   1.00
O2       0.19653    0.60326    0.20657   1.00
C3       0.28177    0.58174    0.26858   1.00
H1       0.30572    0.59615    0.28318   1.00
C3a      0.21998    0.54287    0.23289   1.00
H1       0.19688    0.52798    0.21739   1.00
C3b      0.28118    0.54078    0.26838   1.00
C4       0.25018    0.52100    0.25038   1.00
O3       0.29099    0.47833    0.19190   1.00
C5       0.16121    0.61280    0.22546   1.00
H2       0.14601    0.58609    0.23630   1.00
C5       0.13551    0.63326    0.19546   1.00
H2       0.16647    0.63274    0.25061   1.00
H2       0.12191    0.61068    0.17646   1.00
H2       0.15500    0.65093    0.17637   1.00
C5       0.10396    0.65918    0.21420   1.00
H2       0.08676    0.64176    0.23547   1.00
C5       0.07609    0.67547    0.18296   1.00
H2       0.11714    0.68493    0.22931   1.00
C5       0.29212    0.50983    0.13039   1.00
H2       0.31125    0.48785    0.11599   1.00
H2       0.31164    0.53048    0.14619   1.00
C5       0.26754    0.53200    0.10002   1.00
C5       0.29408    0.54775    0.06738   1.00
H2       0.17090    0.30714    0.42018   1.00
C5       0.21885    0.31088    0.46270   1.00
H2       0.17997    0.35677    0.44027   1.00
C5       0.48105    0.46663    0.26400   1.00
H2       0.45505    0.49449    0.31565   1.00
H2       0.43272    0.44707    0.30144   1.00
C5       0.04095    0.69503    0.20297   1.00
H2       0.09215    0.69789    0.16437   1.00
H2       0.06541    0.65063    0.16359   1.00
H2       0.31979    0.56398    0.08086   1.00
H2       0.30536    0.52239    0.04906   1.00
C5       0.27066    0.57583    0.04128   1.00
H2       0.24723    0.29884    0.45025   1.00
H2       0.22570    0.33429    0.48530   1.00
H2       0.20172    0.28626    0.47708   1.00
H2       0.47737    0.48180    0.23463   1.00
H2       0.50870    0.47771    0.27880   1.00
H2       0.48339    0.43379    0.25930   1.00
H2       0.05124    0.71111    0.23020   1.00
H2       0.02686    0.71664    0.18199   1.00
H2       0.01873    0.67181    0.21154   1.00
H2       0.27413    0.60693    0.05254   1.00
H2       0.28200    0.57402    0.01007   1.00
H2       0.23852    0.56734    0.04191   1.00
C5       0.36715    0.70152    -0.13218   1.00
H2       0.34776    0.68054    -0.14745   1.00
H2       0.38418    0.68397    -0.11090   1.00
C5       0.39459    0.72100    -0.16194   1.00
C5       0.42955    0.69436    -0.17123   1.00
H2       0.40559    0.74919    -0.15015   1.00
O3       0.28786    0.80985    0.02000   1.00
C4       0.24962    0.74982    -0.02100   1.00
C3c      0.27877    0.73057    -0.04243   1.00
H1       0.30178    0.71524    -0.02725   1.00
C3d      0.21959    0.76914    -0.04135   1.00
C3       0.27908    0.73121    -0.08354   1.00
O2       0.30568    0.70784    -0.10248   1.00
C3       0.22022    0.77047    -0.08227   1.00
H1       0.19735    0.78681    -0.09657   1.00
C2       0.24972    0.75152    -0.10439   1.00
C5       0.26594    0.84472    0.02121   1.00
H2       0.26137    0.85532    0.05162   1.00
H2       0.23675    0.84070    0.00734   1.00
C5       0.28861    0.87568    -0.00129   1.00
H2       0.29413    0.86462    -0.03137   1.00
H2       0.31754    0.87971    0.01302   1.00
C5       0.26600    0.91447    -0.00262   1.00
H2       0.26014    0.92555    0.02732   1.00
H2       0.23770    0.91078    -0.01811   1.00
C5       0.29002    0.94553    -0.02445   1.00
C5       0.16037    0.76674    -0.01105   1.00
C5       0.33991    0.72937    -0.11070   1.00
H2       0.16992    0.74317    0.00912   1.00
H2       0.14640    0.75313    -0.03712   1.00
H2       0.35368    0.73953    -0.08300   1.00
H2       0.33398    0.75579    -0.12895   1.00
H2       0.37938    0.72639    -0.19030   1.00
H2       0.11344    0.75239    0.05753   1.00
H2       0.08647    0.74551    0.01237   1.00
C2       0.24953    0.75264    0.10395   1.00
C3       0.23196    0.72115    0.08403   1.00
O2       0.20657    0.69653    0.10326   1.00
C3       0.26858    0.78177    0.08174   1.00
H1       0.28318    0.80572    0.09615   1.00
C3a      0.23289    0.71998    0.04287   1.00
H1       0.21739    0.69688    0.02798   1.00
C3b      0.26838    0.78118    0.04078   1.00
C4       0.25038    0.75018    0.02100   1.00
O3       0.19190    0.79099    -0.02167   1.00
C5       0.22546    0.66121    0.11280   1.00
H2       0.23630    0.64601    0.08609   1.00
C5       0.19546    0.63551    0.13326   1.00
H2       0.25061    0.66647    0.13274   1.00
H2       0.17646    0.62191    0.11068   1.00
H2       0.17637    0.65500    0.15093   1.00
C5       0.21420    0.60396    0.15918   1.00
H2       0.23547    0.58676    0.14176   1.00
C5       0.18296    0.57609    0.17547   1.00
H2       0.22931    0.61714    0.18493   1.00
C5       0.13039    0.79212    0.00983   1.00
H2       0.11599    0.81125    -0.01215   1.00
H2       0.14619    0.81164    0.03048   1.00
C5       0.10002    0.76754    0.03200   1.00
C5       0.06738    0.79408    0.04775   1.00
H2       0.42018    0.67090    -0.19286   1.00
C5       0.46270    0.71885    -0.18912   1.00
H2       0.44027    0.67997    -0.14323   1.00
C5       0.26400    0.98105    -0.03337   1.00
H2       0.31565    0.95505    -0.00551   1.00
H2       0.30144    0.93272    -0.05293   1.00
C5       0.20297    0.54095    0.19503   1.00
H2       0.16437    0.59215    0.19789   1.00
H2       0.16359    0.56541    0.15063   1.00
H2       0.08086    0.81979    0.06398   1.00
H2       0.04906    0.80536    0.02239   1.00
C5       0.04128    0.77066    0.07583   1.00
H2       0.45025    0.74723    -0.20116   1.00
H2       0.48530    0.72570    -0.16571   1.00
H2       0.47708    0.70172    -0.21374   1.00
H2       0.23463    0.97737    -0.01820   1.00
H2       0.27880    1.00870    -0.02229   1.00
H2       0.25930    0.98339    -0.06621   1.00
H2       0.23020    0.55124    0.21111   1.00
H2       0.18199    0.52686    0.21664   1.00
H2       0.21154    0.51873    0.17181   1.00
H2       0.05254    0.77413    0.10693   1.00
H2       0.01007    0.78200    0.07402   1.00
H2       0.04191    0.73852    0.06734   1.00
C5       0.86715    0.29848    0.63218   1.00
H2       0.84776    0.31946    0.64745   1.00
H2       0.88418    0.31603    0.61090   1.00
C5       0.89459    0.27900    0.66194   1.00
C5       0.92955    0.30564    0.67123   1.00
H2       0.90559    0.25081    0.65015   1.00
O3       0.78786    0.19015    0.48000   1.00
C4       0.74962    0.25018    0.52100   1.00
C3c      0.77877    0.26943    0.54243   1.00
H1       0.80178    0.28476    0.52725   1.00
C3d      0.71959    0.23086    0.54135   1.00
C3       0.77908    0.26879    0.58354   1.00
O2       0.80568    0.29216    0.60248   1.00
C3       0.72022    0.22953    0.58227   1.00
H1       0.69735    0.21319    0.59657   1.00
C2       0.74972    0.24848    0.60439   1.00
C5       0.76594    0.15528    0.47879   1.00
H2       0.76137    0.14468    0.44838   1.00
H2       0.73675    0.15930    0.49266   1.00
C5       0.78861    0.12432    0.50129   1.00
H2       0.79413    0.13538    0.53137   1.00
H2       0.81754    0.12029    0.48698   1.00
C5       0.76600    0.08553    0.50262   1.00
H2       0.76014    0.07445    0.47268   1.00
H2       0.73770    0.08922    0.51811   1.00
C5       0.79002    0.05447    0.52445   1.00
C5       0.66037    0.23326    0.51105   1.00
C5       0.83991    0.27063    0.61070   1.00
H2       0.66992    0.25683    0.49088   1.00
H2       0.64640    0.24687    0.53712   1.00
H2       0.85368    0.26047    0.58300   1.00
H2       0.83398    0.24421    0.62895   1.00
H2       0.87938    0.27361    0.69030   1.00
H2       0.61344    0.24761    0.44247   1.00
H2       0.58647    0.25449    0.48763   1.00
C2       0.74953    0.24736    0.39605   1.00
C3       0.73196    0.27885    0.41597   1.00
O2       0.70657    0.30347    0.39674   1.00
C3       0.76858    0.21823    0.41826   1.00
H1       0.78318    0.19428    0.40385   1.00
C3a      0.73289    0.28002    0.45713   1.00
H1       0.71739    0.30312    0.47202   1.00
C3b      0.76838    0.21882    0.45922   1.00
C4       0.75038    0.24982    0.47900   1.00
O3       0.69190    0.20901    0.52167   1.00
C5       0.72546    0.33879    0.38720   1.00
H2       0.73630    0.35399    0.41391   1.00
C5       0.69546    0.36449    0.36674   1.00
H2       0.75061    0.33353    0.36726   1.00
H2       0.67646    0.37809    0.38932   1.00
H2       0.67637    0.34500    0.34907   1.00
C5       0.71420    0.39604    0.34082   1.00
H2       0.73547    0.41324    0.35824   1.00
C5       0.68296    0.42391    0.32453   1.00
H2       0.72931    0.38286    0.31507   1.00
C5       0.63039    0.20788    0.49017   1.00
H2       0.61599    0.18875    0.51215   1.00
H2       0.64619    0.18836    0.46952   1.00
C5       0.60002    0.23246    0.46800   1.00
C5       0.56738    0.20592    0.45225   1.00
H2       0.92018    0.32910    0.69286   1.00
C5       0.96270    0.28115    0.68912   1.00
H2       0.94027    0.32003    0.64323   1.00
C5       0.76400    0.01895    0.53337   1.00
H2       0.81565    0.04495    0.50551   1.00
H2       0.80144    0.06728    0.55293   1.00
C5       0.70297    0.45905    0.30497   1.00
H2       0.66437    0.40785    0.30211   1.00
H2       0.66359    0.43459    0.34937   1.00
H2       0.58086    0.18021    0.43602   1.00
H2       0.54906    0.19464    0.47761   1.00
C5       0.54128    0.22934    0.42417   1.00
H2       0.95025    0.25277    0.70116   1.00
H2       0.98530    0.27430    0.66571   1.00
H2       0.97708    0.29828    0.71374   1.00
H2       0.73463    0.02263    0.51820   1.00
H2       0.77880    -0.00870   0.52229   1.00
H2       0.75930    0.01661    0.56621   1.00
H2       0.73020    0.44876    0.28889   1.00
H2       0.68199    0.47314    0.28336   1.00
H2       0.71154    0.48127    0.32819   1.00
H2       0.55254    0.22587    0.39307   1.00
H2       0.51007    0.21800    0.42598   1.00
H2       0.54191    0.26148    0.43266   1.00
C5       0.79848    0.63218    0.36715   1.00
H2       0.81946    0.64745    0.34776   1.00
H2       0.81603    0.61090    0.38418   1.00
C5       0.77900    0.66194    0.39459   1.00
C5       0.80564    0.67123    0.42955   1.00
H2       0.75081    0.65015    0.40559   1.00
O3       0.69015    0.48000    0.28786   1.00
C4       0.75018    0.52100    0.24962   1.00
C3c      0.76943    0.54243    0.27877   1.00
H1       0.78476    0.52725    0.30178   1.00
C3d      0.73086    0.54135    0.21959   1.00
C3       0.76879    0.58354    0.27908   1.00
O2       0.79216    0.60248    0.30568   1.00
C3       0.72953    0.58227    0.22022   1.00
H1       0.71319    0.59657    0.19735   1.00
C2       0.74848    0.60439    0.24972   1.00
C5       0.65528    0.47879    0.26594   1.00
H2       0.64468    0.44838    0.26137   1.00
H2       0.65930    0.49266    0.23675   1.00
C5       0.62432    0.50129    0.28861   1.00
H2       0.63538    0.53137    0.29413   1.00
H2       0.62029    0.48698    0.31754   1.00
C5       0.58553    0.50262    0.26600   1.00
H2       0.57445    0.47268    0.26014   1.00
H2       0.58922    0.51811    0.23770   1.00
C5       0.55447    0.52445    0.29002   1.00
C5       0.73326    0.51105    0.16037   1.00
C5       0.77063    0.61070    0.33991   1.00
H2       0.75683    0.49088    0.16992   1.00
H2       0.74687    0.53712    0.14640   1.00
H2       0.76047    0.58300    0.35368   1.00
H2       0.74421    0.62895    0.33398   1.00
H2       0.77361    0.69030    0.37938   1.00
H2       0.74761    0.44247    0.11344   1.00
H2       0.75449    0.48763    0.08647   1.00
C2       0.74736    0.39605    0.24953   1.00
C3       0.77885    0.41597    0.23196   1.00
O2       0.80347    0.39674    0.20657   1.00
C3       0.71823    0.41826    0.26858   1.00
H1       0.69428    0.40385    0.28318   1.00
C3a      0.78002    0.45713    0.23289   1.00
H1       0.80312    0.47202    0.21739   1.00
C3b      0.71882    0.45922    0.26838   1.00
C4       0.74982    0.47900    0.25038   1.00
O3       0.70901    0.52167    0.19190   1.00
C5       0.83879    0.38720    0.22546   1.00
H2       0.85399    0.41391    0.23630   1.00
C5       0.86449    0.36674    0.19546   1.00
H2       0.83353    0.36726    0.25061   1.00
H2       0.87809    0.38932    0.17646   1.00
H2       0.84500    0.34907    0.17637   1.00
C5       0.89604    0.34082    0.21420   1.00
H2       0.91324    0.35824    0.23547   1.00
C5       0.92391    0.32453    0.18296   1.00
H2       0.88286    0.31507    0.22931   1.00
C5       0.70788    0.49017    0.13039   1.00
H2       0.68875    0.51215    0.11599   1.00
H2       0.68836    0.46952    0.14619   1.00
C5       0.73246    0.46800    0.10002   1.00
C5       0.70592    0.45225    0.06738   1.00
H2       0.82910    0.69286    0.42018   1.00
C5       0.78115    0.68912    0.46270   1.00
H2       0.82003    0.64323    0.44027   1.00
C5       0.51895    0.53337    0.26400   1.00
H2       0.54495    0.50551    0.31565   1.00
H2       0.56728    0.55293    0.30144   1.00
C5       0.95905    0.30497    0.20297   1.00
H2       0.90785    0.30211    0.16437   1.00
H2       0.93459    0.34937    0.16359   1.00
H2       0.68021    0.43602    0.08086   1.00
H2       0.69464    0.47761    0.04906   1.00
C5       0.72934    0.42417    0.04128   1.00
H2       0.75277    0.70116    0.45025   1.00
H2       0.77430    0.66571    0.48530   1.00
H2       0.79828    0.71374    0.47708   1.00
H2       0.52263    0.51820    0.23463   1.00
H2       0.49130    0.52229    0.27880   1.00
H2       0.51661    0.56621    0.25930   1.00
H2       0.94876    0.28889    0.23020   1.00
H2       0.97314    0.28336    0.18199   1.00
H2       0.98127    0.32819    0.21154   1.00
H2       0.72587    0.39307    0.05254   1.00
H2       0.71800    0.42598    0.01007   1.00
H2       0.76148    0.43266    0.04191   1.00
C5       0.36782    0.36715    0.20152   1.00
H2       0.35255    0.34776    0.18054   1.00
H2       0.38910    0.38418    0.18397   1.00
C5       0.33806    0.39459    0.22100   1.00
C5       0.32877    0.42955    0.19436   1.00
H2       0.34985    0.40559    0.24919   1.00
O3       0.52000    0.28786    0.30985   1.00
C4       0.47900    0.24962    0.24982   1.00
C3c      0.45757    0.27877    0.23057   1.00
H1       0.47275    0.30178    0.21524   1.00
C3d      0.45865    0.21959    0.26914   1.00
C3       0.41646    0.27908    0.23121   1.00
O2       0.39752    0.30568    0.20784   1.00
C3       0.41773    0.22022    0.27047   1.00
H1       0.40343    0.19735    0.28681   1.00
C2       0.39561    0.24972    0.25152   1.00
C5       0.52121    0.26594    0.34472   1.00
H2       0.55162    0.26137    0.35532   1.00
H2       0.50734    0.23675    0.34070   1.00
C5       0.49871    0.28861    0.37568   1.00
H2       0.46863    0.29413    0.36462   1.00
H2       0.51302    0.31754    0.37971   1.00
C5       0.49738    0.26600    0.41447   1.00
H2       0.52732    0.26014    0.42555   1.00
H2       0.48189    0.23770    0.41078   1.00
C5       0.47555    0.29002    0.44553   1.00
C5       0.48895    0.16037    0.26674   1.00
C5       0.38930    0.33991    0.22937   1.00
H2       0.50912    0.16992    0.24317   1.00
H2       0.46288    0.14640    0.25313   1.00
H2       0.41700    0.35368    0.23953   1.00
H2       0.37105    0.33398    0.25579   1.00
H2       0.30970    0.37938    0.22639   1.00
H2       0.55753    0.11344    0.25239   1.00
H2       0.51237    0.08647    0.24551   1.00
C2       0.60395    0.24953    0.25264   1.00
C3       0.58403    0.23196    0.22115   1.00
O2       0.60326    0.20657    0.19653   1.00
C3       0.58174    0.26858    0.28177   1.00
H1       0.59615    0.28318    0.30572   1.00
C3a      0.54287    0.23289    0.21998   1.00
H1       0.52798    0.21739    0.19688   1.00
C3b      0.54078    0.26838    0.28118   1.00
C4       0.52100    0.25038    0.25018   1.00
O3       0.47833    0.19190    0.29099   1.00
C5       0.61280    0.22546    0.16121   1.00
H2       0.58609    0.23630    0.14601   1.00
C5       0.63326    0.19546    0.13551   1.00
H2       0.63274    0.25061    0.16647   1.00
H2       0.61068    0.17646    0.12191   1.00
H2       0.65093    0.17637    0.15500   1.00
C5       0.65918    0.21420    0.10396   1.00
H2       0.64176    0.23547    0.08676   1.00
C5       0.67547    0.18296    0.07609   1.00
H2       0.68493    0.22931    0.11714   1.00
C5       0.50983    0.13039    0.29212   1.00
H2       0.48785    0.11599    0.31125   1.00
H2       0.53048    0.14619    0.31164   1.00
C5       0.53200    0.10002    0.26754   1.00
C5       0.54775    0.06738    0.29408   1.00
H2       0.30714    0.42018    0.17090   1.00
C5       0.31088    0.46270    0.21885   1.00
H2       0.35677    0.44027    0.17997   1.00
C5       0.46663    0.26400    0.48105   1.00
H2       0.49449    0.31565    0.45505   1.00
H2       0.44707    0.30144    0.43272   1.00
C5       0.69503    0.20297    0.04095   1.00
H2       0.69789    0.16437    0.09215   1.00
H2       0.65063    0.16359    0.06541   1.00
H2       0.56398    0.08086    0.31979   1.00
H2       0.52239    0.04906    0.30536   1.00
C5       0.57583    0.04128    0.27066   1.00
H2       0.29884    0.45025    0.24723   1.00
H2       0.33429    0.48530    0.22570   1.00
H2       0.28626    0.47708    0.20172   1.00
H2       0.48180    0.23463    0.47737   1.00
H2       0.47771    0.27880    0.50870   1.00
H2       0.43379    0.25930    0.48339   1.00
H2       0.71111    0.23020    0.05124   1.00
H2       0.71664    0.18199    0.02686   1.00
H2       0.67181    0.21154    0.01873   1.00
H2       0.60693    0.05254    0.27413   1.00
H2       0.57402    0.01007    0.28200   1.00
H2       0.56734    0.04191    0.23852   1.00
C5       1.13218    0.36715    0.29848   1.00
H2       1.14745    0.34776    0.31946   1.00
H2       1.11090    0.38418    0.31603   1.00
C5       1.16194    0.39459    0.27900   1.00
C5       1.17123    0.42955    0.30564   1.00
H2       1.15015    0.40559    0.25081   1.00
O3       0.98000    0.28786    0.19015   1.00
C4       1.02100    0.24962    0.25018   1.00
C3c      1.04243    0.27877    0.26943   1.00
H1       1.02725    0.30178    0.28476   1.00
C3d      1.04135    0.21959    0.23086   1.00
C3       1.08354    0.27908    0.26879   1.00
O2       1.10248    0.30568    0.29216   1.00
C3       1.08227    0.22022    0.22953   1.00
H1       1.09657    0.19735    0.21319   1.00
C2       1.10439    0.24972    0.24848   1.00
C5       0.97879    0.26594    0.15528   1.00
H2       0.94838    0.26137    0.14468   1.00
H2       0.99266    0.23675    0.15930   1.00
C5       1.00129    0.28861    0.12432   1.00
H2       1.03137    0.29413    0.13538   1.00
H2       0.98698    0.31754    0.12029   1.00
C5       1.00262    0.26600    0.08553   1.00
H2       0.97268    0.26014    0.07445   1.00
H2       1.01811    0.23770    0.08922   1.00
C5       1.02445    0.29002    0.05447   1.00
C5       1.01105    0.16037    0.23326   1.00
C5       1.11070    0.33991    0.27063   1.00
H2       0.99088    0.16992    0.25683   1.00
H2       1.03712    0.14640    0.24687   1.00
H2       1.08300    0.35368    0.26047   1.00
H2       1.12895    0.33398    0.24421   1.00
H2       1.19030    0.37938    0.27361   1.00
H2       0.94247    0.11344    0.24761   1.00
H2       0.98763    0.08647    0.25449   1.00
C2       0.89605    0.24953    0.24736   1.00
C3       0.91597    0.23196    0.27885   1.00
O2       0.89674    0.20657    0.30347   1.00
C3       0.91826    0.26858    0.21823   1.00
H1       0.90385    0.28318    0.19428   1.00
C3a      0.95713    0.23289    0.28002   1.00
H1       0.97202    0.21739    0.30312   1.00
C3b      0.95922    0.26838    0.21882   1.00
C4       0.97900    0.25038    0.24982   1.00
O3       1.02167    0.19190    0.20901   1.00
C5       0.88720    0.22546    0.33879   1.00
H2       0.91391    0.23630    0.35399   1.00
C5       0.86674    0.19546    0.36449   1.00
H2       0.86726    0.25061    0.33353   1.00
H2       0.88932    0.17646    0.37809   1.00
H2       0.84907    0.17637    0.34500   1.00
C5       0.84082    0.21420    0.39604   1.00
H2       0.85824    0.23547    0.41324   1.00
C5       0.82453    0.18296    0.42391   1.00
H2       0.81507    0.22931    0.38286   1.00
C5       0.99017    0.13039    0.20788   1.00
H2       1.01215    0.11599    0.18875   1.00
H2       0.96952    0.14619    0.18836   1.00
C5       0.96800    0.10002    0.23246   1.00
C5       0.95225    0.06738    0.20592   1.00
H2       1.19286    0.42018    0.32910   1.00
C5       1.18912    0.46270    0.28115   1.00
H2       1.14323    0.44027    0.32003   1.00
C5       1.03337    0.26400    0.01895   1.00
H2       1.00551    0.31565    0.04495   1.00
H2       1.05293    0.30144    0.06728   1.00
C5       0.80497    0.20297    0.45905   1.00
H2       0.80211    0.16437    0.40785   1.00
H2       0.84937    0.16359    0.43459   1.00
H2       0.93602    0.08086    0.18021   1.00
H2       0.97761    0.04906    0.19464   1.00
C5       0.92417    0.04128    0.22934   1.00
H2       1.20116    0.45025    0.25277   1.00
H2       1.16571    0.48530    0.27430   1.00
H2       1.21374    0.47708    0.29828   1.00
H2       1.01820    0.23463    0.02263   1.00
H2       1.02229    0.27880    -0.00870   1.00
H2       1.06621    0.25930    0.01661   1.00
H2       0.78889    0.23020    0.44876   1.00
H2       0.78336    0.18199    0.47314   1.00
H2       0.82819    0.21154    0.48127   1.00
H2       0.89307    0.05254    0.22587   1.00
H2       0.92598    0.01007    0.21800   1.00
H2       0.93266    0.04191    0.26148   1.00
C5       0.70152    -0.13218   0.36715   1.00
H2       0.68054    -0.14745   0.34776   1.00
H2       0.68397    -0.11090   0.38418   1.00
C5       0.72100    -0.16194   0.39459   1.00
C5       0.69436    -0.17123   0.42955   1.00
H2       0.74919    -0.15015   0.40559   1.00
O3       0.80985    0.02000    0.28786   1.00
C4       0.74982    -0.02100   0.24962   1.00
C3c      0.73057    -0.04243   0.27877   1.00
H1       0.71524    -0.02725   0.30178   1.00
C3d      0.76914    -0.04135   0.21959   1.00
C3       0.73121    -0.08354   0.27908   1.00
O2       0.70784    -0.10248   0.30568   1.00
C3       0.77047    -0.08227   0.22022   1.00
H1       0.78681    -0.09657   0.19735   1.00
C2       0.75152    -0.10439   0.24972   1.00
C5       0.84472    0.02121    0.26594   1.00
H2       0.85532    0.05162    0.26137   1.00
H2       0.84070    0.00734    0.23675   1.00
C5       0.87568    -0.00129   0.28861   1.00
H2       0.86462    -0.03137   0.29413   1.00
H2       0.87971    0.01302    0.31754   1.00
C5       0.91447    -0.00262   0.26600   1.00
H2       0.92555    0.02732    0.26014   1.00
H2       0.91078    -0.01811   0.23770   1.00
C5       0.94553    -0.02445   0.29002   1.00
C5       0.76674    -0.01105   0.16037   1.00
C5       0.72937    -0.11070   0.33991   1.00
H2       0.74317    0.00912    0.16992   1.00
H2       0.75313    -0.03712   0.14640   1.00
H2       0.73953    -0.08300   0.35368   1.00
H2       0.75579    -0.12895   0.33398   1.00
H2       0.72639    -0.19030   0.37938   1.00
H2       0.75239    0.05753    0.11344   1.00
H2       0.74551    0.01237    0.08647   1.00
C2       0.75264    0.10395    0.24953   1.00
C3       0.72115    0.08403    0.23196   1.00
O2       0.69653    0.10326    0.20657   1.00
C3       0.78177    0.08174    0.26858   1.00
H1       0.80572    0.09615    0.28318   1.00
C3a      0.71998    0.04287    0.23289   1.00
H1       0.69688    0.02798    0.21739   1.00
C3b      0.78118    0.04078    0.26838   1.00
C4       0.75018    0.02100    0.25038   1.00
O3       0.79099    -0.02167   0.19190   1.00
C5       0.66121    0.11280    0.22546   1.00
H2       0.64601    0.08609    0.23630   1.00
C5       0.63551    0.13326    0.19546   1.00
H2       0.66647    0.13274    0.25061   1.00
H2       0.62191    0.11068    0.17646   1.00
H2       0.65500    0.15093    0.17637   1.00
C5       0.60396    0.15918    0.21420   1.00
H2       0.58676    0.14176    0.23547   1.00
C5       0.57609    0.17547    0.18296   1.00
H2       0.61714    0.18493    0.22931   1.00
C5       0.79212    0.00983    0.13039   1.00
H2       0.81125    -0.01215   0.11599   1.00
H2       0.81164    0.03048    0.14619   1.00
C5       0.76754    0.03200    0.10002   1.00
C5       0.79408    0.04775    0.06738   1.00
H2       0.67090    -0.19286   0.42018   1.00
C5       0.71885    -0.18912   0.46270   1.00
H2       0.67997    -0.14323   0.44027   1.00
C5       0.98105    -0.03337   0.26400   1.00
H2       0.95505    -0.00551   0.31565   1.00
H2       0.93272    -0.05293   0.30144   1.00
C5       0.54095    0.19503    0.20297   1.00
H2       0.59215    0.19789    0.16437   1.00
H2       0.56541    0.15063    0.16359   1.00
H2       0.81979    0.06398    0.08086   1.00
H2       0.80536    0.02239    0.04906   1.00
C5       0.77066    0.07583    0.04128   1.00
H2       0.74723    -0.20116   0.45025   1.00
H2       0.72570    -0.16571   0.48530   1.00
H2       0.70172    -0.21374   0.47708   1.00
H2       0.97737    -0.01820   0.23463   1.00
H2       1.00870    -0.02229   0.27880   1.00
H2       0.98339    -0.06621   0.25930   1.00
H2       0.55124    0.21111    0.23020   1.00
H2       0.52686    0.21664    0.18199   1.00
H2       0.51873    0.17181    0.21154   1.00
H2       0.77413    0.10693    0.05254   1.00
H2       0.78200    0.07402    0.01007   1.00
H2       0.73852    0.06734    0.04191   1.00
C5       0.86715    0.20152    -0.13218   1.00
H2       0.84776    0.18054    -0.14745   1.00
H2       0.88418    0.18397    -0.11090   1.00
C5       0.89459    0.22100    -0.16194   1.00
C5       0.92955    0.19436    -0.17123   1.00
H2       0.90559    0.24919    -0.15015   1.00
O3       0.78786    0.30985    0.02000   1.00
C4       0.74962    0.24982    -0.02100   1.00
C3c      0.77877    0.23057    -0.04243   1.00
H1       0.80178    0.21524    -0.02725   1.00
C3d      0.71959    0.26914    -0.04135   1.00
C3       0.77908    0.23121    -0.08354   1.00
O2       0.80568    0.20784    -0.10248   1.00
C3       0.72022    0.27047    -0.08227   1.00
H1       0.69735    0.28681    -0.09657   1.00
C2       0.74972    0.25152    -0.10439   1.00
C5       0.76594    0.34472    0.02121   1.00
H2       0.76137    0.35532    0.05162   1.00
H2       0.73675    0.34070    0.00734   1.00
C5       0.78861    0.37568    -0.00129   1.00
H2       0.79413    0.36462    -0.03137   1.00
H2       0.81754    0.37971    0.01302   1.00
C5       0.76600    0.41447    -0.00262   1.00
H2       0.76014    0.42555    0.02732   1.00
H2       0.73770    0.41078    -0.01811   1.00
C5       0.79002    0.44553    -0.02445   1.00
C5       0.66037    0.26674    -0.01105   1.00
C5       0.83991    0.22937    -0.11070   1.00
H2       0.66992    0.24317    0.00912   1.00
H2       0.64640    0.25313    -0.03712   1.00
H2       0.85368    0.23953    -0.08300   1.00
H2       0.83398    0.25579    -0.12895   1.00
H2       0.87938    0.22639    -0.19030   1.00
H2       0.61344    0.25239    0.05753   1.00
H2       0.58647    0.24551    0.01237   1.00
C2       0.74953    0.25264    0.10395   1.00
C3       0.73196    0.22115    0.08403   1.00
O2       0.70657    0.19653    0.10326   1.00
C3       0.76858    0.28177    0.08174   1.00
H1       0.78318    0.30572    0.09615   1.00
C3a      0.73289    0.21998    0.04287   1.00
H1       0.71739    0.19688    0.02798   1.00
C3b      0.76838    0.28118    0.04078   1.00
C4       0.75038    0.25018    0.02100   1.00
O3       0.69190    0.29099    -0.02167   1.00
C5       0.72546    0.16121    0.11280   1.00
H2       0.73630    0.14601    0.08609   1.00
C5       0.69546    0.13551    0.13326   1.00
H2       0.75061    0.16647    0.13274   1.00
H2       0.67646    0.12191    0.11068   1.00
H2       0.67637    0.15500    0.15093   1.00
C5       0.71420    0.10396    0.15918   1.00
H2       0.73547    0.08676    0.14176   1.00
C5       0.68296    0.07609    0.17547   1.00
H2       0.72931    0.11714    0.18493   1.00
C5       0.63039    0.29212    0.00983   1.00
H2       0.61599    0.31125    -0.01215   1.00
H2       0.64619    0.31164    0.03048   1.00
C5       0.60002    0.26754    0.03200   1.00
C5       0.56738    0.29408    0.04775   1.00
H2       0.92018    0.17090    -0.19286   1.00
C5       0.96270    0.21885    -0.18912   1.00
H2       0.94027    0.17997    -0.14323   1.00
C5       0.76400    0.48105    -0.03337   1.00
H2       0.81565    0.45505    -0.00551   1.00
H2       0.80144    0.43272    -0.05293   1.00
C5       0.70297    0.04095    0.19503   1.00
H2       0.66437    0.09215    0.19789   1.00
H2       0.66359    0.06541    0.15063   1.00
H2       0.58086    0.31979    0.06398   1.00
H2       0.54906    0.30536    0.02239   1.00
C5       0.54128    0.27066    0.07583   1.00
H2       0.95025    0.24723    -0.20116   1.00
H2       0.98530    0.22570    -0.16571   1.00
H2       0.97708    0.20172    -0.21374   1.00
H2       0.73463    0.47737    -0.01820   1.00
H2       0.77880    0.50870    -0.02229   1.00
H2       0.75930    0.48339    -0.06621   1.00
H2       0.73020    0.05124    0.21111   1.00
H2       0.68199    0.02686    0.21664   1.00
H2       0.71154    0.01873    0.17181   1.00
H2       0.55254    0.27413    0.10693   1.00
H2       0.51007    0.28200    0.07402   1.00
H2       0.54191    0.23852    0.06734   1.00
C5       1.03215    0.96348    1.29718   1.00
H2       1.01276    0.98446    1.31245   1.00
H2       1.04918    0.98103    1.27590   1.00
C5       1.05959    0.94400    1.32694   1.00
C5       1.09455    0.97064    1.33623   1.00
H2       1.07059    0.91581    1.31515   1.00
O3       0.95286    0.85515    1.14500   1.00
C4       0.91462    0.91518    1.18600   1.00
C3c      0.94377    0.93443    1.20743   1.00
H1       0.96678    0.94976    1.19225   1.00
C3d      0.88459    0.89586    1.20635   1.00
C3       0.94408    0.93379    1.24854   1.00
O2       0.97068    0.95716    1.26748   1.00
C3       0.88522    0.89453    1.24727   1.00
H1       0.86235    0.87819    1.26157   1.00
C2       0.91472    0.91348    1.26939   1.00
C5       0.93094    0.82028    1.14379   1.00
H2       0.92637    0.80968    1.11338   1.00
H2       0.90175    0.82430    1.15766   1.00
C5       0.95361    0.78932    1.16629   1.00
H2       0.95913    0.80038    1.19637   1.00
H2       0.98254    0.78529    1.15198   1.00
C5       0.93100    0.75053    1.16762   1.00
H2       0.92514    0.73945    1.13768   1.00
H2       0.90270    0.75422    1.18311   1.00
C5       0.95502    0.71947    1.18945   1.00
C5       0.82537    0.89826    1.17605   1.00
C5       1.00491    0.93563    1.27570   1.00
H2       0.83492    0.92183    1.15588   1.00
H2       0.81140    0.91187    1.20212   1.00
H2       1.01868    0.92547    1.24800   1.00
H2       0.99898    0.90921    1.29395   1.00
H2       1.04438    0.93861    1.35530   1.00
H2       0.77844    0.91261    1.10747   1.00
H2       0.75147    0.91949    1.15263   1.00
C2       0.91453    0.91236    1.06105   1.00
C3       0.89696    0.94385    1.08097   1.00
O2       0.87157    0.96847    1.06174   1.00
C3       0.93358    0.88323    1.08326   1.00
H1       0.94818    0.85928    1.06885   1.00
C3a      0.89789    0.94502    1.12213   1.00
H1       0.88239    0.96812    1.13702   1.00
C3b      0.93338    0.88382    1.12422   1.00
C4       0.91538    0.91482    1.14400   1.00
O3       0.85690    0.87401    1.18667   1.00
C5       0.89046    1.00379    1.05220   1.00
H2       0.90130    1.01899    1.07891   1.00
C5       0.86046    1.02949    1.03174   1.00
H2       0.91561    0.99853    1.03226   1.00
H2       0.84146    1.04309    1.05432   1.00
H2       0.84137    1.01000    1.01407   1.00
C5       0.87920    1.06104    1.00582   1.00
H2       0.90047    1.07824    1.02324   1.00
C5       0.84796    1.08891    0.98953   1.00
H2       0.89431    1.04786    0.98007   1.00
C5       0.79539    0.87288    1.15517   1.00
H2       0.78099    0.85375    1.17715   1.00
H2       0.81119    0.85336    1.13452   1.00
C5       0.76502    0.89746    1.13300   1.00
C5       0.73238    0.87092    1.11725   1.00
H2       1.08518    0.99410    1.35786   1.00
C5       1.12770    0.94615    1.35412   1.00
H2       1.10527    0.98503    1.30823   1.00
C5       0.92900    0.68395    1.19837   1.00
H2       0.98065    0.70995    1.17051   1.00
H2       0.96644    0.73228    1.21793   1.00
C5       0.86797    1.12405    0.96997   1.00
H2       0.82937    1.07285    0.96711   1.00
H2       0.82859    1.09959    1.01437   1.00
H2       0.74586    0.84521    1.10102   1.00
H2       0.71406    0.85964    1.14261   1.00
C5       0.70628    0.89434    1.08917   1.00
H2       1.11525    0.91777    1.36616   1.00
H2       1.15030    0.93930    1.33071   1.00
H2       1.14208    0.96328    1.37874   1.00
H2       0.89963    0.68763    1.18320   1.00
H2       0.94380    0.65630    1.18729   1.00
H2       0.92430    0.68161    1.23121   1.00
H2       0.89520    1.11376    0.95389   1.00
H2       0.84699    1.13814    0.94836   1.00
H2       0.87654    1.14627    0.99319   1.00
H2       0.71754    0.89087    1.05807   1.00
H2       0.67507    0.88300    1.09098   1.00
H2       0.70691    0.92648    1.09766   1.00
C5       0.96348    1.29718    1.03215   1.00
H2       0.98446    1.31245    1.01276   1.00
H2       0.98103    1.27590    1.04918   1.00
C5       0.94400    1.32694    1.05959   1.00
C5       0.97064    1.33623    1.09455   1.00
H2       0.91581    1.31515    1.07059   1.00
O3       0.85515    1.14500    0.95286   1.00
C4       0.91518    1.18600    0.91462   1.00
C3c      0.93443    1.20743    0.94377   1.00
H1       0.94976    1.19225    0.96678   1.00
C3d      0.89586    1.20635    0.88459   1.00
C3       0.93379    1.24854    0.94408   1.00
O2       0.95716    1.26748    0.97068   1.00
C3       0.89453    1.24727    0.88522   1.00
H1       0.87819    1.26157    0.86235   1.00
C2       0.91348    1.26939    0.91472   1.00
C5       0.82028    1.14379    0.93094   1.00
H2       0.80968    1.11338    0.92637   1.00
H2       0.82430    1.15766    0.90175   1.00
C5       0.78932    1.16629    0.95361   1.00
H2       0.80038    1.19637    0.95913   1.00
H2       0.78529    1.15198    0.98254   1.00
C5       0.75053    1.16762    0.93100   1.00
H2       0.73945    1.13768    0.92514   1.00
H2       0.75422    1.18311    0.90270   1.00
C5       0.71947    1.18945    0.95502   1.00
C5       0.89826    1.17605    0.82537   1.00
C5       0.93563    1.27570    1.00491   1.00
H2       0.92183    1.15588    0.83492   1.00
H2       0.91187    1.20212    0.81140   1.00
H2       0.92547    1.24800    1.01868   1.00
H2       0.90921    1.29395    0.99898   1.00
H2       0.93861    1.35530    1.04438   1.00
H2       0.91261    1.10747    0.77844   1.00
H2       0.91949    1.15263    0.75147   1.00
C2       0.91236    1.06105    0.91453   1.00
C3       0.94385    1.08097    0.89696   1.00
O2       0.96847    1.06174    0.87157   1.00
C3       0.88323    1.08326    0.93358   1.00
H1       0.85928    1.06885    0.94818   1.00
C3a      0.94502    1.12213    0.89789   1.00
H1       0.96812    1.13702    0.88239   1.00
C3b      0.88382    1.12422    0.93338   1.00
C4       0.91482    1.14400    0.91538   1.00
O3       0.87401    1.18667    0.85690   1.00
C5       1.00379    1.05220    0.89046   1.00
H2       1.01899    1.07891    0.90130   1.00
C5       1.02949    1.03174    0.86046   1.00
H2       0.99853    1.03226    0.91561   1.00
H2       1.04309    1.05432    0.84146   1.00
H2       1.01000    1.01407    0.84137   1.00
C5       1.06104    1.00582    0.87920   1.00
H2       1.07824    1.02324    0.90047   1.00
C5       1.08891    0.98953    0.84796   1.00
H2       1.04786    0.98007    0.89431   1.00
C5       0.87288    1.15517    0.79539   1.00
H2       0.85375    1.17715    0.78099   1.00
H2       0.85336    1.13452    0.81119   1.00
C5       0.89746    1.13300    0.76502   1.00
C5       0.87092    1.11725    0.73238   1.00
H2       0.99410    1.35786    1.08518   1.00
C5       0.94615    1.35412    1.12770   1.00
H2       0.98503    1.30823    1.10527   1.00
C5       0.68395    1.19837    0.92900   1.00
H2       0.70995    1.17051    0.98065   1.00
H2       0.73228    1.21793    0.96644   1.00
C5       1.12405    0.96997    0.86797   1.00
H2       1.07285    0.96711    0.82937   1.00
H2       1.09959    1.01437    0.82859   1.00
H2       0.84521    1.10102    0.74586   1.00
H2       0.85964    1.14261    0.71406   1.00
C5       0.89434    1.08917    0.70628   1.00
H2       0.91777    1.36616    1.11525   1.00
H2       0.93930    1.33071    1.15030   1.00
H2       0.96328    1.37874    1.14208   1.00
H2       0.68763    1.18320    0.89963   1.00
H2       0.65630    1.18729    0.94380   1.00
H2       0.68161    1.23121    0.92430   1.00
H2       1.11376    0.95389    0.89520   1.00
H2       1.13814    0.94836    0.84699   1.00
H2       1.14627    0.99319    0.87654   1.00
H2       0.89087    1.05807    0.71754   1.00
H2       0.88300    1.09098    0.67507   1.00
H2       0.92648    1.09766    0.70691   1.00
C5       0.53282    1.03215    0.86652   1.00
H2       0.51755    1.01276    0.84554   1.00
H2       0.55410    1.04918    0.84897   1.00
C5       0.50306    1.05959    0.88600   1.00
C5       0.49377    1.09455    0.85936   1.00
H2       0.51485    1.07059    0.91419   1.00
O3       0.68500    0.95286    0.97485   1.00
C4       0.64400    0.91462    0.91482   1.00
C3c      0.62257    0.94377    0.89557   1.00
H1       0.63775    0.96678    0.88024   1.00
C3d      0.62365    0.88459    0.93414   1.00
C3       0.58146    0.94408    0.89621   1.00
O2       0.56252    0.97068    0.87284   1.00
C3       0.58273    0.88522    0.93547   1.00
H1       0.56843    0.86235    0.95181   1.00
C2       0.56061    0.91472    0.91652   1.00
C5       0.68621    0.93094    1.00972   1.00
H2       0.71662    0.92637    1.02032   1.00
H2       0.67234    0.90175    1.00570   1.00
C5       0.66371    0.95361    1.04068   1.00
H2       0.63363    0.95913    1.02962   1.00
H2       0.67802    0.98254    1.04471   1.00
C5       0.66238    0.93100    1.07947   1.00
H2       0.69232    0.92514    1.09055   1.00
H2       0.64689    0.90270    1.07578   1.00
C5       0.64055    0.95502    1.11053   1.00
C5       0.65395    0.82537    0.93174   1.00
C5       0.55430    1.00491    0.89437   1.00
H2       0.67412    0.83492    0.90817   1.00
H2       0.62788    0.81140    0.91813   1.00
H2       0.58200    1.01868    0.90453   1.00
H2       0.53605    0.99898    0.92079   1.00
H2       0.47470    1.04438    0.89139   1.00
H2       0.72253    0.77844    0.91739   1.00
H2       0.67737    0.75147    0.91051   1.00
C2       0.76895    0.91453    0.91764   1.00
C3       0.74903    0.89696    0.88615   1.00
O2       0.76826    0.87157    0.86153   1.00
C3       0.74674    0.93358    0.94677   1.00
H1       0.76115    0.94818    0.97072   1.00
C3a      0.70787    0.89789    0.88498   1.00
H1       0.69298    0.88239    0.86188   1.00
C3b      0.70578    0.93338    0.94618   1.00
C4       0.68600    0.91538    0.91518   1.00
O3       0.64333    0.85690    0.95599   1.00
C5       0.77780    0.89046    0.82621   1.00
H2       0.75109    0.90130    0.81101   1.00
C5       0.79826    0.86046    0.80051   1.00
H2       0.79774    0.91561    0.83147   1.00
H2       0.77568    0.84146    0.78691   1.00
H2       0.81593    0.84137    0.82000   1.00
C5       0.82418    0.87920    0.76896   1.00
H2       0.80676    0.90047    0.75176   1.00
C5       0.84047    0.84796    0.74109   1.00
H2       0.84993    0.89431    0.78214   1.00
C5       0.67483    0.79539    0.95712   1.00
H2       0.65285    0.78099    0.97625   1.00
H2       0.69548    0.81119    0.97664   1.00
C5       0.69700    0.76502    0.93254   1.00
C5       0.71275    0.73238    0.95908   1.00
H2       0.47214    1.08518    0.83590   1.00
C5       0.47588    1.12770    0.88385   1.00
H2       0.52177    1.10527    0.84497   1.00
C5       0.63163    0.92900    1.14605   1.00
H2       0.65949    0.98065    1.12005   1.00
H2       0.61207    0.96644    1.09772   1.00
C5       0.86003    0.86797    0.70595   1.00
H2       0.86289    0.82937    0.75715   1.00
H2       0.81563    0.82859    0.73041   1.00
H2       0.72898    0.74586    0.98479   1.00
H2       0.68739    0.71406    0.97036   1.00
C5       0.74083    0.70628    0.93566   1.00
H2       0.46384    1.11525    0.91223   1.00
H2       0.49929    1.15030    0.89070   1.00
H2       0.45126    1.14208    0.86672   1.00
H2       0.64680    0.89963    1.14237   1.00
H2       0.64271    0.94380    1.17370   1.00
H2       0.59879    0.92430    1.14839   1.00
H2       0.87611    0.89520    0.71624   1.00
H2       0.88164    0.84699    0.69186   1.00
H2       0.83681    0.87654    0.68373   1.00
H2       0.77193    0.71754    0.93913   1.00
H2       0.73902    0.67507    0.94700   1.00
H2       0.73234    0.70691    0.90352   1.00
C5       1.29718    1.03215    0.96348   1.00
H2       1.31245    1.01276    0.98446   1.00
H2       1.27590    1.04918    0.98103   1.00
C5       1.32694    1.05959    0.94400   1.00
C5       1.33623    1.09455    0.97064   1.00
H2       1.31515    1.07059    0.91581   1.00
O3       1.14500    0.95286    0.85515   1.00
C4       1.18600    0.91462    0.91518   1.00
C3c      1.20743    0.94377    0.93443   1.00
H1       1.19225    0.96678    0.94976   1.00
C3d      1.20635    0.88459    0.89586   1.00
C3       1.24854    0.94408    0.93379   1.00
O2       1.26748    0.97068    0.95716   1.00
C3       1.24727    0.88522    0.89453   1.00
H1       1.26157    0.86235    0.87819   1.00
C2       1.26939    0.91472    0.91348   1.00
C5       1.14379    0.93094    0.82028   1.00
H2       1.11338    0.92637    0.80968   1.00
H2       1.15766    0.90175    0.82430   1.00
C5       1.16629    0.95361    0.78932   1.00
H2       1.19637    0.95913    0.80038   1.00
H2       1.15198    0.98254    0.78529   1.00
C5       1.16762    0.93100    0.75053   1.00
H2       1.13768    0.92514    0.73945   1.00
H2       1.18311    0.90270    0.75422   1.00
C5       1.18945    0.95502    0.71947   1.00
C5       1.17605    0.82537    0.89826   1.00
C5       1.27570    1.00491    0.93563   1.00
H2       1.15588    0.83492    0.92183   1.00
H2       1.20212    0.81140    0.91187   1.00
H2       1.24800    1.01868    0.92547   1.00
H2       1.29395    0.99898    0.90921   1.00
H2       1.35530    1.04438    0.93861   1.00
H2       1.10747    0.77844    0.91261   1.00
H2       1.15263    0.75147    0.91949   1.00
C2       1.06105    0.91453    0.91236   1.00
C3       1.08097    0.89696    0.94385   1.00
O2       1.06174    0.87157    0.96847   1.00
C3       1.08326    0.93358    0.88323   1.00
H1       1.06885    0.94818    0.85928   1.00
C3a      1.12213    0.89789    0.94502   1.00
H1       1.13702    0.88239    0.96812   1.00
C3b      1.12422    0.93338    0.88382   1.00
C4       1.14400    0.91538    0.91482   1.00
O3       1.18667    0.85690    0.87401   1.00
C5       1.05220    0.89046    1.00379   1.00
H2       1.07891    0.90130    1.01899   1.00
C5       1.03174    0.86046    1.02949   1.00
H2       1.03226    0.91561    0.99853   1.00
H2       1.05432    0.84146    1.04309   1.00
H2       1.01407    0.84137    1.01000   1.00
C5       1.00582    0.87920    1.06104   1.00
H2       1.02324    0.90047    1.07824   1.00
C5       0.98953    0.84796    1.08891   1.00
H2       0.98007    0.89431    1.04786   1.00
C5       1.15517    0.79539    0.87288   1.00
H2       1.17715    0.78099    0.85375   1.00
H2       1.13452    0.81119    0.85336   1.00
C5       1.13300    0.76502    0.89746   1.00
C5       1.11725    0.73238    0.87092   1.00
H2       1.35786    1.08518    0.99410   1.00
C5       1.35412    1.12770    0.94615   1.00
H2       1.30823    1.10527    0.98503   1.00
C5       1.19837    0.92900    0.68395   1.00
H2       1.17051    0.98065    0.70995   1.00
H2       1.21793    0.96644    0.73228   1.00
C5       0.96997    0.86797    1.12405   1.00
H2       0.96711    0.82937    1.07285   1.00
H2       1.01437    0.82859    1.09959   1.00
H2       1.10102    0.74586    0.84521   1.00
H2       1.14261    0.71406    0.85964   1.00
C5       1.08917    0.70628    0.89434   1.00
H2       1.36616    1.11525    0.91777   1.00
H2       1.33071    1.15030    0.93930   1.00
H2       1.37874    1.14208    0.96328   1.00
H2       1.18320    0.89963    0.68763   1.00
H2       1.18729    0.94380    0.65630   1.00
H2       1.23121    0.92430    0.68161   1.00
H2       0.95389    0.89520    1.11376   1.00
H2       0.94836    0.84699    1.13814   1.00
H2       0.99319    0.87654    1.14627   1.00
H2       1.05807    0.71754    0.89087   1.00
H2       1.09098    0.67507    0.88300   1.00
H2       1.09766    0.70691    0.92648   1.00
C5       0.86652    0.53282    1.03215   1.00
H2       0.84554    0.51755    1.01276   1.00
H2       0.84897    0.55410    1.04918   1.00
C5       0.88600    0.50306    1.05959   1.00
C5       0.85936    0.49377    1.09455   1.00
H2       0.91419    0.51485    1.07059   1.00
O3       0.97485    0.68500    0.95286   1.00
C4       0.91482    0.64400    0.91462   1.00
C3c      0.89557    0.62257    0.94377   1.00
H1       0.88024    0.63775    0.96678   1.00
C3d      0.93414    0.62365    0.88459   1.00
C3       0.89621    0.58146    0.94408   1.00
O2       0.87284    0.56252    0.97068   1.00
C3       0.93547    0.58273    0.88522   1.00
H1       0.95181    0.56843    0.86235   1.00
C2       0.91652    0.56061    0.91472   1.00
C5       1.00972    0.68621    0.93094   1.00
H2       1.02032    0.71662    0.92637   1.00
H2       1.00570    0.67234    0.90175   1.00
C5       1.04068    0.66371    0.95361   1.00
H2       1.02962    0.63363    0.95913   1.00
H2       1.04471    0.67802    0.98254   1.00
C5       1.07947    0.66238    0.93100   1.00
H2       1.09055    0.69232    0.92514   1.00
H2       1.07578    0.64689    0.90270   1.00
C5       1.11053    0.64055    0.95502   1.00
C5       0.93174    0.65395    0.82537   1.00
C5       0.89437    0.55430    1.00491   1.00
H2       0.90817    0.67412    0.83492   1.00
H2       0.91813    0.62788    0.81140   1.00
H2       0.90453    0.58200    1.01868   1.00
H2       0.92079    0.53605    0.99898   1.00
H2       0.89139    0.47470    1.04438   1.00
H2       0.91739    0.72253    0.77844   1.00
H2       0.91051    0.67737    0.75147   1.00
C2       0.91764    0.76895    0.91453   1.00
C3       0.88615    0.74903    0.89696   1.00
O2       0.86153    0.76826    0.87157   1.00
C3       0.94677    0.74674    0.93358   1.00
H1       0.97072    0.76115    0.94818   1.00
C3a      0.88498    0.70787    0.89789   1.00
H1       0.86188    0.69298    0.88239   1.00
C3b      0.94618    0.70578    0.93338   1.00
C4       0.91518    0.68600    0.91538   1.00
O3       0.95599    0.64333    0.85690   1.00
C5       0.82621    0.77780    0.89046   1.00
H2       0.81101    0.75109    0.90130   1.00
C5       0.80051    0.79826    0.86046   1.00
H2       0.83147    0.79774    0.91561   1.00
H2       0.78691    0.77568    0.84146   1.00
H2       0.82000    0.81593    0.84137   1.00
C5       0.76896    0.82418    0.87920   1.00
H2       0.75176    0.80676    0.90047   1.00
C5       0.74109    0.84047    0.84796   1.00
H2       0.78214    0.84993    0.89431   1.00
C5       0.95712    0.67483    0.79539   1.00
H2       0.97625    0.65285    0.78099   1.00
H2       0.97664    0.69548    0.81119   1.00
C5       0.93254    0.69700    0.76502   1.00
C5       0.95908    0.71275    0.73238   1.00
H2       0.83590    0.47214    1.08518   1.00
C5       0.88385    0.47588    1.12770   1.00
H2       0.84497    0.52177    1.10527   1.00
C5       1.14605    0.63163    0.92900   1.00
H2       1.12005    0.65949    0.98065   1.00
H2       1.09772    0.61207    0.96644   1.00
C5       0.70595    0.86003    0.86797   1.00
H2       0.75715    0.86289    0.82937   1.00
H2       0.73041    0.81563    0.82859   1.00
H2       0.98479    0.72898    0.74586   1.00
H2       0.97036    0.68739    0.71406   1.00
C5       0.93566    0.74083    0.70628   1.00
H2       0.91223    0.46384    1.11525   1.00
H2       0.89070    0.49929    1.15030   1.00
H2       0.86672    0.45126    1.14208   1.00
H2       1.14237    0.64680    0.89963   1.00
H2       1.17370    0.64271    0.94380   1.00
H2       1.14839    0.59879    0.92430   1.00
H2       0.71624    0.87611    0.89520   1.00
H2       0.69186    0.88164    0.84699   1.00
H2       0.68373    0.83681    0.87654   1.00
H2       0.93913    0.77193    0.71754   1.00
H2       0.94700    0.73902    0.67507   1.00
H2       0.90352    0.73234    0.70691   1.00
C5       1.03215    0.86652    0.53282   1.00
H2       1.01276    0.84554    0.51755   1.00
H2       1.04918    0.84897    0.55410   1.00
C5       1.05959    0.88600    0.50306   1.00
C5       1.09455    0.85936    0.49377   1.00
H2       1.07059    0.91419    0.51485   1.00
O3       0.95286    0.97485    0.68500   1.00
C4       0.91462    0.91482    0.64400   1.00
C3c      0.94377    0.89557    0.62257   1.00
H1       0.96678    0.88024    0.63775   1.00
C3d      0.88459    0.93414    0.62365   1.00
C3       0.94408    0.89621    0.58146   1.00
O2       0.97068    0.87284    0.56252   1.00
C3       0.88522    0.93547    0.58273   1.00
H1       0.86235    0.95181    0.56843   1.00
C2       0.91472    0.91652    0.56061   1.00
C5       0.93094    1.00972    0.68621   1.00
H2       0.92637    1.02032    0.71662   1.00
H2       0.90175    1.00570    0.67234   1.00
C5       0.95361    1.04068    0.66371   1.00
H2       0.95913    1.02962    0.63363   1.00
H2       0.98254    1.04471    0.67802   1.00
C5       0.93100    1.07947    0.66238   1.00
H2       0.92514    1.09055    0.69232   1.00
H2       0.90270    1.07578    0.64689   1.00
C5       0.95502    1.11053    0.64055   1.00
C5       0.82537    0.93174    0.65395   1.00
C5       1.00491    0.89437    0.55430   1.00
H2       0.83492    0.90817    0.67412   1.00
H2       0.81140    0.91813    0.62788   1.00
H2       1.01868    0.90453    0.58200   1.00
H2       0.99898    0.92079    0.53605   1.00
H2       1.04438    0.89139    0.47470   1.00
H2       0.77844    0.91739    0.72253   1.00
H2       0.75147    0.91051    0.67737   1.00
C2       0.91453    0.91764    0.76895   1.00
C3       0.89696    0.88615    0.74903   1.00
O2       0.87157    0.86153    0.76826   1.00
C3       0.93358    0.94677    0.74674   1.00
H1       0.94818    0.97072    0.76115   1.00
C3a      0.89789    0.88498    0.70787   1.00
H1       0.88239    0.86188    0.69298   1.00
C3b      0.93338    0.94618    0.70578   1.00
C4       0.91538    0.91518    0.68600   1.00
O3       0.85690    0.95599    0.64333   1.00
C5       0.89046    0.82621    0.77780   1.00
H2       0.90130    0.81101    0.75109   1.00
C5       0.86046    0.80051    0.79826   1.00
H2       0.91561    0.83147    0.79774   1.00
H2       0.84146    0.78691    0.77568   1.00
H2       0.84137    0.82000    0.81593   1.00
C5       0.87920    0.76896    0.82418   1.00
H2       0.90047    0.75176    0.80676   1.00
C5       0.84796    0.74109    0.84047   1.00
H2       0.89431    0.78214    0.84993   1.00
C5       0.79539    0.95712    0.67483   1.00
H2       0.78099    0.97625    0.65285   1.00
H2       0.81119    0.97664    0.69548   1.00
C5       0.76502    0.93254    0.69700   1.00
C5       0.73238    0.95908    0.71275   1.00
H2       1.08518    0.83590    0.47214   1.00
C5       1.12770    0.88385    0.47588   1.00
H2       1.10527    0.84497    0.52177   1.00
C5       0.92900    1.14605    0.63163   1.00
H2       0.98065    1.12005    0.65949   1.00
H2       0.96644    1.09772    0.61207   1.00
C5       0.86797    0.70595    0.86003   1.00
H2       0.82937    0.75715    0.86289   1.00
H2       0.82859    0.73041    0.81563   1.00
H2       0.74586    0.98479    0.72898   1.00
H2       0.71406    0.97036    0.68739   1.00
C5       0.70628    0.93566    0.74083   1.00
H2       1.11525    0.91223    0.46384   1.00
H2       1.15030    0.89070    0.49929   1.00
H2       1.14208    0.86672    0.45126   1.00
H2       0.89963    1.14237    0.64680   1.00
H2       0.94380    1.17370    0.64271   1.00
H2       0.92430    1.14839    0.59879   1.00
H2       0.89520    0.71624    0.87611   1.00
H2       0.84699    0.69186    0.88164   1.00
H2       0.87654    0.68373    0.83681   1.00
H2       0.71754    0.93913    0.77193   1.00
H2       0.67507    0.94700    0.73902   1.00
H2       0.70691    0.90352    0.73234   1.00
C5       0.53215    0.46348    1.29718   1.00
H2       0.51276    0.48446    1.31245   1.00
H2       0.54918    0.48103    1.27590   1.00
C5       0.55959    0.44400    1.32694   1.00
C5       0.59455    0.47064    1.33623   1.00
H2       0.57059    0.41581    1.31515   1.00
O3       0.45286    0.35515    1.14500   1.00
C4       0.41462    0.41518    1.18600   1.00
C3c      0.44377    0.43443    1.20743   1.00
H1       0.46678    0.44976    1.19225   1.00
C3d      0.38459    0.39586    1.20635   1.00
C3       0.44408    0.43379    1.24854   1.00
O2       0.47068    0.45716    1.26748   1.00
C3       0.38522    0.39453    1.24727   1.00
H1       0.36235    0.37819    1.26157   1.00
C2       0.41472    0.41348    1.26939   1.00
C5       0.43094    0.32028    1.14379   1.00
H2       0.42637    0.30968    1.11338   1.00
H2       0.40175    0.32430    1.15766   1.00
C5       0.45361    0.28932    1.16629   1.00
H2       0.45913    0.30038    1.19637   1.00
H2       0.48254    0.28529    1.15198   1.00
C5       0.43100    0.25053    1.16762   1.00
H2       0.42514    0.23945    1.13768   1.00
H2       0.40270    0.25422    1.18311   1.00
C5       0.45502    0.21947    1.18945   1.00
C5       0.32537    0.39826    1.17605   1.00
C5       0.50491    0.43563    1.27570   1.00
H2       0.33492    0.42183    1.15588   1.00
H2       0.31140    0.41187    1.20212   1.00
H2       0.51868    0.42547    1.24800   1.00
H2       0.49898    0.40921    1.29395   1.00
H2       0.54438    0.43861    1.35530   1.00
H2       0.27844    0.41261    1.10747   1.00
H2       0.25147    0.41949    1.15263   1.00
C2       0.41453    0.41236    1.06105   1.00
C3       0.39696    0.44385    1.08097   1.00
O2       0.37157    0.46847    1.06174   1.00
C3       0.43358    0.38323    1.08326   1.00
H1       0.44818    0.35928    1.06885   1.00
C3a      0.39789    0.44502    1.12213   1.00
H1       0.38239    0.46812    1.13702   1.00
C3b      0.43338    0.38382    1.12422   1.00
C4       0.41538    0.41482    1.14400   1.00
O3       0.35690    0.37401    1.18667   1.00
C5       0.39046    0.50379    1.05220   1.00
H2       0.40130    0.51899    1.07891   1.00
C5       0.36046    0.52949    1.03174   1.00
H2       0.41561    0.49853    1.03226   1.00
H2       0.34146    0.54309    1.05432   1.00
H2       0.34137    0.51000    1.01407   1.00
C5       0.37920    0.56104    1.00582   1.00
H2       0.40047    0.57824    1.02324   1.00
C5       0.34796    0.58891    0.98953   1.00
H2       0.39431    0.54786    0.98007   1.00
C5       0.29539    0.37288    1.15517   1.00
H2       0.28099    0.35375    1.17715   1.00
H2       0.31119    0.35336    1.13452   1.00
C5       0.26502    0.39746    1.13300   1.00
C5       0.23238    0.37092    1.11725   1.00
H2       0.58518    0.49410    1.35786   1.00
C5       0.62770    0.44615    1.35412   1.00
H2       0.60527    0.48503    1.30823   1.00
C5       0.42900    0.18395    1.19837   1.00
H2       0.48065    0.20995    1.17051   1.00
H2       0.46644    0.23228    1.21793   1.00
C5       0.36797    0.62405    0.96997   1.00
H2       0.32937    0.57285    0.96711   1.00
H2       0.32859    0.59959    1.01437   1.00
H2       0.24586    0.34521    1.10102   1.00
H2       0.21406    0.35964    1.14261   1.00
C5       0.20628    0.39434    1.08917   1.00
H2       0.61525    0.41777    1.36616   1.00
H2       0.65030    0.43930    1.33071   1.00
H2       0.64208    0.46328    1.37874   1.00
H2       0.39963    0.18763    1.18320   1.00
H2       0.44380    0.15630    1.18729   1.00
H2       0.42430    0.18161    1.23121   1.00
H2       0.39520    0.61376    0.95389   1.00
H2       0.34699    0.63814    0.94836   1.00
H2       0.37654    0.64627    0.99319   1.00
H2       0.21754    0.39087    1.05807   1.00
H2       0.17507    0.38300    1.09098   1.00
H2       0.20691    0.42648    1.09766   1.00
C5       0.46348    0.79718    1.03215   1.00
H2       0.48446    0.81245    1.01276   1.00
H2       0.48103    0.77590    1.04918   1.00
C5       0.44400    0.82694    1.05959   1.00
C5       0.47064    0.83623    1.09455   1.00
H2       0.41581    0.81515    1.07059   1.00
O3       0.35515    0.64500    0.95286   1.00
C4       0.41518    0.68600    0.91462   1.00
C3c      0.43443    0.70743    0.94377   1.00
H1       0.44976    0.69225    0.96678   1.00
C3d      0.39586    0.70635    0.88459   1.00
C3       0.43379    0.74854    0.94408   1.00
O2       0.45716    0.76748    0.97068   1.00
C3       0.39453    0.74727    0.88522   1.00
H1       0.37819    0.76157    0.86235   1.00
C2       0.41348    0.76939    0.91472   1.00
C5       0.32028    0.64379    0.93094   1.00
H2       0.30968    0.61338    0.92637   1.00
H2       0.32430    0.65766    0.90175   1.00
C5       0.28932    0.66629    0.95361   1.00
H2       0.30038    0.69637    0.95913   1.00
H2       0.28529    0.65198    0.98254   1.00
C5       0.25053    0.66762    0.93100   1.00
H2       0.23945    0.63768    0.92514   1.00
H2       0.25422    0.68311    0.90270   1.00
C5       0.21947    0.68945    0.95502   1.00
C5       0.39826    0.67605    0.82537   1.00
C5       0.43563    0.77570    1.00491   1.00
H2       0.42183    0.65588    0.83492   1.00
H2       0.41187    0.70212    0.81140   1.00
H2       0.42547    0.74800    1.01868   1.00
H2       0.40921    0.79395    0.99898   1.00
H2       0.43861    0.85530    1.04438   1.00
H2       0.41261    0.60747    0.77844   1.00
H2       0.41949    0.65263    0.75147   1.00
C2       0.41236    0.56105    0.91453   1.00
C3       0.44385    0.58097    0.89696   1.00
O2       0.46847    0.56174    0.87157   1.00
C3       0.38323    0.58326    0.93358   1.00
H1       0.35928    0.56885    0.94818   1.00
C3a      0.44502    0.62213    0.89789   1.00
H1       0.46812    0.63702    0.88239   1.00
C3b      0.38382    0.62422    0.93338   1.00
C4       0.41482    0.64400    0.91538   1.00
O3       0.37401    0.68667    0.85690   1.00
C5       0.50379    0.55220    0.89046   1.00
H2       0.51899    0.57891    0.90130   1.00
C5       0.52949    0.53174    0.86046   1.00
H2       0.49853    0.53226    0.91561   1.00
H2       0.54309    0.55432    0.84146   1.00
H2       0.51000    0.51407    0.84137   1.00
C5       0.56104    0.50582    0.87920   1.00
H2       0.57824    0.52324    0.90047   1.00
C5       0.58891    0.48953    0.84796   1.00
H2       0.54786    0.48007    0.89431   1.00
C5       0.37288    0.65517    0.79539   1.00
H2       0.35375    0.67715    0.78099   1.00
H2       0.35336    0.63452    0.81119   1.00
C5       0.39746    0.63300    0.76502   1.00
C5       0.37092    0.61725    0.73238   1.00
H2       0.49410    0.85786    1.08518   1.00
C5       0.44615    0.85412    1.12770   1.00
H2       0.48503    0.80823    1.10527   1.00
C5       0.18395    0.69837    0.92900   1.00
H2       0.20995    0.67051    0.98065   1.00
H2       0.23228    0.71793    0.96644   1.00
C5       0.62405    0.46997    0.86797   1.00
H2       0.57285    0.46711    0.82937   1.00
H2       0.59959    0.51437    0.82859   1.00
H2       0.34521    0.60102    0.74586   1.00
H2       0.35964    0.64261    0.71406   1.00
C5       0.39434    0.58917    0.70628   1.00
H2       0.41777    0.86616    1.11525   1.00
H2       0.43930    0.83071    1.15030   1.00
H2       0.46328    0.87874    1.14208   1.00
H2       0.18763    0.68320    0.89963   1.00
H2       0.15630    0.68729    0.94380   1.00
H2       0.18161    0.73121    0.92430   1.00
H2       0.61376    0.45389    0.89520   1.00
H2       0.63814    0.44836    0.84699   1.00
H2       0.64627    0.49319    0.87654   1.00
H2       0.39087    0.55807    0.71754   1.00
H2       0.38300    0.59098    0.67507   1.00
H2       0.42648    0.59766    0.70691   1.00
C5       0.03282    0.53215    0.86652   1.00
H2       0.01755    0.51276    0.84554   1.00
H2       0.05410    0.54918    0.84897   1.00
C5       0.00306    0.55959    0.88600   1.00
C5       -0.00623   0.59455    0.85936   1.00
H2       0.01485    0.57059    0.91419   1.00
O3       0.18500    0.45286    0.97485   1.00
C4       0.14400    0.41462    0.91482   1.00
C3c      0.12257    0.44377    0.89557   1.00
H1       0.13775    0.46678    0.88024   1.00
C3d      0.12365    0.38459    0.93414   1.00
C3       0.08146    0.44408    0.89621   1.00
O2       0.06252    0.47068    0.87284   1.00
C3       0.08273    0.38522    0.93547   1.00
H1       0.06843    0.36235    0.95181   1.00
C2       0.06061    0.41472    0.91652   1.00
C5       0.18621    0.43094    1.00972   1.00
H2       0.21662    0.42637    1.02032   1.00
H2       0.17234    0.40175    1.00570   1.00
C5       0.16371    0.45361    1.04068   1.00
H2       0.13363    0.45913    1.02962   1.00
H2       0.17802    0.48254    1.04471   1.00
C5       0.16238    0.43100    1.07947   1.00
H2       0.19232    0.42514    1.09055   1.00
H2       0.14689    0.40270    1.07578   1.00
C5       0.14055    0.45502    1.11053   1.00
C5       0.15395    0.32537    0.93174   1.00
C5       0.05430    0.50491    0.89437   1.00
H2       0.17412    0.33492    0.90817   1.00
H2       0.12788    0.31140    0.91813   1.00
H2       0.08200    0.51868    0.90453   1.00
H2       0.03605    0.49898    0.92079   1.00
H2       -0.02530   0.54438    0.89139   1.00
H2       0.22253    0.27844    0.91739   1.00
H2       0.17737    0.25147    0.91051   1.00
C2       0.26895    0.41453    0.91764   1.00
C3       0.24903    0.39696    0.88615   1.00
O2       0.26826    0.37157    0.86153   1.00
C3       0.24674    0.43358    0.94677   1.00
H1       0.26115    0.44818    0.97072   1.00
C3a      0.20787    0.39789    0.88498   1.00
H1       0.19298    0.38239    0.86188   1.00
C3b      0.20578    0.43338    0.94618   1.00
C4       0.18600    0.41538    0.91518   1.00
O3       0.14333    0.35690    0.95599   1.00
C5       0.27780    0.39046    0.82621   1.00
H2       0.25109    0.40130    0.81101   1.00
C5       0.29826    0.36046    0.80051   1.00
H2       0.29774    0.41561    0.83147   1.00
H2       0.27568    0.34146    0.78691   1.00
H2       0.31593    0.34137    0.82000   1.00
C5       0.32418    0.37920    0.76896   1.00
H2       0.30676    0.40047    0.75176   1.00
C5       0.34047    0.34796    0.74109   1.00
H2       0.34993    0.39431    0.78214   1.00
C5       0.17483    0.29539    0.95712   1.00
H2       0.15285    0.28099    0.97625   1.00
H2       0.19548    0.31119    0.97664   1.00
C5       0.19700    0.26502    0.93254   1.00
C5       0.21275    0.23238    0.95908   1.00
H2       -0.02786   0.58518    0.83590   1.00
C5       -0.02412   0.62770    0.88385   1.00
H2       0.02177    0.60527    0.84497   1.00
C5       0.13163    0.42900    1.14605   1.00
H2       0.15949    0.48065    1.12005   1.00
H2       0.11207    0.46644    1.09772   1.00
C5       0.36003    0.36797    0.70595   1.00
H2       0.36289    0.32937    0.75715   1.00
H2       0.31563    0.32859    0.73041   1.00
H2       0.22898    0.24586    0.98479   1.00
H2       0.18739    0.21406    0.97036   1.00
C5       0.24083    0.20628    0.93566   1.00
H2       -0.03616   0.61525    0.91223   1.00
H2       -0.00071   0.65030    0.89070   1.00
H2       -0.04874   0.64208    0.86672   1.00
H2       0.14680    0.39963    1.14237   1.00
H2       0.14271    0.44380    1.17370   1.00
H2       0.09879    0.42430    1.14839   1.00
H2       0.37611    0.39520    0.71624   1.00
H2       0.38164    0.34699    0.69186   1.00
H2       0.33681    0.37654    0.68373   1.00
H2       0.27193    0.21754    0.93913   1.00
H2       0.23902    0.17507    0.94700   1.00
H2       0.23234    0.20691    0.90352   1.00
C5       0.79718    0.53215    0.96348   1.00
H2       0.81245    0.51276    0.98446   1.00
H2       0.77590    0.54918    0.98103   1.00
C5       0.82694    0.55959    0.94400   1.00
C5       0.83623    0.59455    0.97064   1.00
H2       0.81515    0.57059    0.91581   1.00
O3       0.64500    0.45286    0.85515   1.00
C4       0.68600    0.41462    0.91518   1.00
C3c      0.70743    0.44377    0.93443   1.00
H1       0.69225    0.46678    0.94976   1.00
C3d      0.70635    0.38459    0.89586   1.00
C3       0.74854    0.44408    0.93379   1.00
O2       0.76748    0.47068    0.95716   1.00
C3       0.74727    0.38522    0.89453   1.00
H1       0.76157    0.36235    0.87819   1.00
C2       0.76939    0.41472    0.91348   1.00
C5       0.64379    0.43094    0.82028   1.00
H2       0.61338    0.42637    0.80968   1.00
H2       0.65766    0.40175    0.82430   1.00
C5       0.66629    0.45361    0.78932   1.00
H2       0.69637    0.45913    0.80038   1.00
H2       0.65198    0.48254    0.78529   1.00
C5       0.66762    0.43100    0.75053   1.00
H2       0.63768    0.42514    0.73945   1.00
H2       0.68311    0.40270    0.75422   1.00
C5       0.68945    0.45502    0.71947   1.00
C5       0.67605    0.32537    0.89826   1.00
C5       0.77570    0.50491    0.93563   1.00
H2       0.65588    0.33492    0.92183   1.00
H2       0.70212    0.31140    0.91187   1.00
H2       0.74800    0.51868    0.92547   1.00
H2       0.79395    0.49898    0.90921   1.00
H2       0.85530    0.54438    0.93861   1.00
H2       0.60747    0.27844    0.91261   1.00
H2       0.65263    0.25147    0.91949   1.00
C2       0.56105    0.41453    0.91236   1.00
C3       0.58097    0.39696    0.94385   1.00
O2       0.56174    0.37157    0.96847   1.00
C3       0.58326    0.43358    0.88323   1.00
H1       0.56885    0.44818    0.85928   1.00
C3a      0.62213    0.39789    0.94502   1.00
H1       0.63702    0.38239    0.96812   1.00
C3b      0.62422    0.43338    0.88382   1.00
C4       0.64400    0.41538    0.91482   1.00
O3       0.68667    0.35690    0.87401   1.00
C5       0.55220    0.39046    1.00379   1.00
H2       0.57891    0.40130    1.01899   1.00
C5       0.53174    0.36046    1.02949   1.00
H2       0.53226    0.41561    0.99853   1.00
H2       0.55432    0.34146    1.04309   1.00
H2       0.51407    0.34137    1.01000   1.00
C5       0.50582    0.37920    1.06104   1.00
H2       0.52324    0.40047    1.07824   1.00
C5       0.48953    0.34796    1.08891   1.00
H2       0.48007    0.39431    1.04786   1.00
C5       0.65517    0.29539    0.87288   1.00
H2       0.67715    0.28099    0.85375   1.00
H2       0.63452    0.31119    0.85336   1.00
C5       0.63300    0.26502    0.89746   1.00
C5       0.61725    0.23238    0.87092   1.00
H2       0.85786    0.58518    0.99410   1.00
C5       0.85412    0.62770    0.94615   1.00
H2       0.80823    0.60527    0.98503   1.00
C5       0.69837    0.42900    0.68395   1.00
H2       0.67051    0.48065    0.70995   1.00
H2       0.71793    0.46644    0.73228   1.00
C5       0.46997    0.36797    1.12405   1.00
H2       0.46711    0.32937    1.07285   1.00
H2       0.51437    0.32859    1.09959   1.00
H2       0.60102    0.24586    0.84521   1.00
H2       0.64261    0.21406    0.85964   1.00
C5       0.58917    0.20628    0.89434   1.00
H2       0.86616    0.61525    0.91777   1.00
H2       0.83071    0.65030    0.93930   1.00
H2       0.87874    0.64208    0.96328   1.00
H2       0.68320    0.39963    0.68763   1.00
H2       0.68729    0.44380    0.65630   1.00
H2       0.73121    0.42430    0.68161   1.00
H2       0.45389    0.39520    1.11376   1.00
H2       0.44836    0.34699    1.13814   1.00
H2       0.49319    0.37654    1.14627   1.00
H2       0.55807    0.21754    0.89087   1.00
H2       0.59098    0.17507    0.88300   1.00
H2       0.59766    0.20691    0.92648   1.00
C5       0.36652    0.03282    1.03215   1.00
H2       0.34554    0.01755    1.01276   1.00
H2       0.34897    0.05410    1.04918   1.00
C5       0.38600    0.00306    1.05959   1.00
C5       0.35936    -0.00623   1.09455   1.00
H2       0.41419    0.01485    1.07059   1.00
O3       0.47485    0.18500    0.95286   1.00
C4       0.41482    0.14400    0.91462   1.00
C3c      0.39557    0.12257    0.94377   1.00
H1       0.38024    0.13775    0.96678   1.00
C3d      0.43414    0.12365    0.88459   1.00
C3       0.39621    0.08146    0.94408   1.00
O2       0.37284    0.06252    0.97068   1.00
C3       0.43547    0.08273    0.88522   1.00
H1       0.45181    0.06843    0.86235   1.00
C2       0.41652    0.06061    0.91472   1.00
C5       0.50972    0.18621    0.93094   1.00
H2       0.52032    0.21662    0.92637   1.00
H2       0.50570    0.17234    0.90175   1.00
C5       0.54068    0.16371    0.95361   1.00
H2       0.52962    0.13363    0.95913   1.00
H2       0.54471    0.17802    0.98254   1.00
C5       0.57947    0.16238    0.93100   1.00
H2       0.59055    0.19232    0.92514   1.00
H2       0.57578    0.14689    0.90270   1.00
C5       0.61053    0.14055    0.95502   1.00
C5       0.43174    0.15395    0.82537   1.00
C5       0.39437    0.05430    1.00491   1.00
H2       0.40817    0.17412    0.83492   1.00
H2       0.41813    0.12788    0.81140   1.00
H2       0.40453    0.08200    1.01868   1.00
H2       0.42079    0.03605    0.99898   1.00
H2       0.39139    -0.02530   1.04438   1.00
H2       0.41739    0.22253    0.77844   1.00
H2       0.41051    0.17737    0.75147   1.00
C2       0.41764    0.26895    0.91453   1.00
C3       0.38615    0.24903    0.89696   1.00
O2       0.36153    0.26826    0.87157   1.00
C3       0.44677    0.24674    0.93358   1.00
H1       0.47072    0.26115    0.94818   1.00
C3a      0.38498    0.20787    0.89789   1.00
H1       0.36188    0.19298    0.88239   1.00
C3b      0.44618    0.20578    0.93338   1.00
C4       0.41518    0.18600    0.91538   1.00
O3       0.45599    0.14333    0.85690   1.00
C5       0.32621    0.27780    0.89046   1.00
H2       0.31101    0.25109    0.90130   1.00
C5       0.30051    0.29826    0.86046   1.00
H2       0.33147    0.29774    0.91561   1.00
H2       0.28691    0.27568    0.84146   1.00
H2       0.32000    0.31593    0.84137   1.00
C5       0.26896    0.32418    0.87920   1.00
H2       0.25176    0.30676    0.90047   1.00
C5       0.24109    0.34047    0.84796   1.00
H2       0.28214    0.34993    0.89431   1.00
C5       0.45712    0.17483    0.79539   1.00
H2       0.47625    0.15285    0.78099   1.00
H2       0.47664    0.19548    0.81119   1.00
C5       0.43254    0.19700    0.76502   1.00
C5       0.45908    0.21275    0.73238   1.00
H2       0.33590    -0.02786   1.08518   1.00
C5       0.38385    -0.02412   1.12770   1.00
H2       0.34497    0.02177    1.10527   1.00
C5       0.64605    0.13163    0.92900   1.00
H2       0.62005    0.15949    0.98065   1.00
H2       0.59772    0.11207    0.96644   1.00
C5       0.20595    0.36003    0.86797   1.00
H2       0.25715    0.36289    0.82937   1.00
H2       0.23041    0.31563    0.82859   1.00
H2       0.48479    0.22898    0.74586   1.00
H2       0.47036    0.18739    0.71406   1.00
C5       0.43566    0.24083    0.70628   1.00
H2       0.41223    -0.03616   1.11525   1.00
H2       0.39070    -0.00071   1.15030   1.00
H2       0.36672    -0.04874   1.14208   1.00
H2       0.64237    0.14680    0.89963   1.00
H2       0.67370    0.14271    0.94380   1.00
H2       0.64839    0.09879    0.92430   1.00
H2       0.21624    0.37611    0.89520   1.00
H2       0.19186    0.38164    0.84699   1.00
H2       0.18373    0.33681    0.87654   1.00
H2       0.43913    0.27193    0.71754   1.00
H2       0.44700    0.23902    0.67507   1.00
H2       0.40352    0.23234    0.70691   1.00
C5       0.53215    0.36652    0.53282   1.00
H2       0.51276    0.34554    0.51755   1.00
H2       0.54918    0.34897    0.55410   1.00
C5       0.55959    0.38600    0.50306   1.00
C5       0.59455    0.35936    0.49377   1.00
H2       0.57059    0.41419    0.51485   1.00
O3       0.45286    0.47485    0.68500   1.00
C4       0.41462    0.41482    0.64400   1.00
C3c      0.44377    0.39557    0.62257   1.00
H1       0.46678    0.38024    0.63775   1.00
C3d      0.38459    0.43414    0.62365   1.00
C3       0.44408    0.39621    0.58146   1.00
O2       0.47068    0.37284    0.56252   1.00
C3       0.38522    0.43547    0.58273   1.00
H1       0.36235    0.45181    0.56843   1.00
C2       0.41472    0.41652    0.56061   1.00
C5       0.43094    0.50972    0.68621   1.00
H2       0.42637    0.52032    0.71662   1.00
H2       0.40175    0.50570    0.67234   1.00
C5       0.45361    0.54068    0.66371   1.00
H2       0.45913    0.52962    0.63363   1.00
H2       0.48254    0.54471    0.67802   1.00
C5       0.43100    0.57947    0.66238   1.00
H2       0.42514    0.59055    0.69232   1.00
H2       0.40270    0.57578    0.64689   1.00
C5       0.45502    0.61053    0.64055   1.00
C5       0.32537    0.43174    0.65395   1.00
C5       0.50491    0.39437    0.55430   1.00
H2       0.33492    0.40817    0.67412   1.00
H2       0.31140    0.41813    0.62788   1.00
H2       0.51868    0.40453    0.58200   1.00
H2       0.49898    0.42079    0.53605   1.00
H2       0.54438    0.39139    0.47470   1.00
H2       0.27844    0.41739    0.72253   1.00
H2       0.25147    0.41051    0.67737   1.00
C2       0.41453    0.41764    0.76895   1.00
C3       0.39696    0.38615    0.74903   1.00
O2       0.37157    0.36153    0.76826   1.00
C3       0.43358    0.44677    0.74674   1.00
H1       0.44818    0.47072    0.76115   1.00
C3a      0.39789    0.38498    0.70787   1.00
H1       0.38239    0.36188    0.69298   1.00
C3b      0.43338    0.44618    0.70578   1.00
C4       0.41538    0.41518    0.68600   1.00
O3       0.35690    0.45599    0.64333   1.00
C5       0.39046    0.32621    0.77780   1.00
H2       0.40130    0.31101    0.75109   1.00
C5       0.36046    0.30051    0.79826   1.00
H2       0.41561    0.33147    0.79774   1.00
H2       0.34146    0.28691    0.77568   1.00
H2       0.34137    0.32000    0.81593   1.00
C5       0.37920    0.26896    0.82418   1.00
H2       0.40047    0.25176    0.80676   1.00
C5       0.34796    0.24109    0.84047   1.00
H2       0.39431    0.28214    0.84993   1.00
C5       0.29539    0.45712    0.67483   1.00
H2       0.28099    0.47625    0.65285   1.00
H2       0.31119    0.47664    0.69548   1.00
C5       0.26502    0.43254    0.69700   1.00
C5       0.23238    0.45908    0.71275   1.00
H2       0.58518    0.33590    0.47214   1.00
C5       0.62770    0.38385    0.47588   1.00
H2       0.60527    0.34497    0.52177   1.00
C5       0.42900    0.64605    0.63163   1.00
H2       0.48065    0.62005    0.65949   1.00
H2       0.46644    0.59772    0.61207   1.00
C5       0.36797    0.20595    0.86003   1.00
H2       0.32937    0.25715    0.86289   1.00
H2       0.32859    0.23041    0.81563   1.00
H2       0.24586    0.48479    0.72898   1.00
H2       0.21406    0.47036    0.68739   1.00
C5       0.20628    0.43566    0.74083   1.00
H2       0.61525    0.41223    0.46384   1.00
H2       0.65030    0.39070    0.49929   1.00
H2       0.64208    0.36672    0.45126   1.00
H2       0.39963    0.64237    0.64680   1.00
H2       0.44380    0.67370    0.64271   1.00
H2       0.42430    0.64839    0.59879   1.00
H2       0.39520    0.21624    0.87611   1.00
H2       0.34699    0.19186    0.88164   1.00
H2       0.37654    0.18373    0.83681   1.00
H2       0.21754    0.43913    0.77193   1.00
H2       0.17507    0.44700    0.73902   1.00
H2       0.20691    0.40352    0.73234   1.00
C5       0.53215    0.96348    0.79718   1.00
H2       0.51276    0.98446    0.81245   1.00
H2       0.54918    0.98103    0.77590   1.00
C5       0.55959    0.94400    0.82694   1.00
C5       0.59455    0.97064    0.83623   1.00
H2       0.57059    0.91581    0.81515   1.00
O3       0.45286    0.85515    0.64500   1.00
C4       0.41462    0.91518    0.68600   1.00
C3c      0.44377    0.93443    0.70743   1.00
H1       0.46678    0.94976    0.69225   1.00
C3d      0.38459    0.89586    0.70635   1.00
C3       0.44408    0.93379    0.74854   1.00
O2       0.47068    0.95716    0.76748   1.00
C3       0.38522    0.89453    0.74727   1.00
H1       0.36235    0.87819    0.76157   1.00
C2       0.41472    0.91348    0.76939   1.00
C5       0.43094    0.82028    0.64379   1.00
H2       0.42637    0.80968    0.61338   1.00
H2       0.40175    0.82430    0.65766   1.00
C5       0.45361    0.78932    0.66629   1.00
H2       0.45913    0.80038    0.69637   1.00
H2       0.48254    0.78529    0.65198   1.00
C5       0.43100    0.75053    0.66762   1.00
H2       0.42514    0.73945    0.63768   1.00
H2       0.40270    0.75422    0.68311   1.00
C5       0.45502    0.71947    0.68945   1.00
C5       0.32537    0.89826    0.67605   1.00
C5       0.50491    0.93563    0.77570   1.00
H2       0.33492    0.92183    0.65588   1.00
H2       0.31140    0.91187    0.70212   1.00
H2       0.51868    0.92547    0.74800   1.00
H2       0.49898    0.90921    0.79395   1.00
H2       0.54438    0.93861    0.85530   1.00
H2       0.27844    0.91261    0.60747   1.00
H2       0.25147    0.91949    0.65263   1.00
C2       0.41453    0.91236    0.56105   1.00
C3       0.39696    0.94385    0.58097   1.00
O2       0.37157    0.96847    0.56174   1.00
C3       0.43358    0.88323    0.58326   1.00
H1       0.44818    0.85928    0.56885   1.00
C3a      0.39789    0.94502    0.62213   1.00
H1       0.38239    0.96812    0.63702   1.00
C3b      0.43338    0.88382    0.62422   1.00
C4       0.41538    0.91482    0.64400   1.00
O3       0.35690    0.87401    0.68667   1.00
C5       0.39046    1.00379    0.55220   1.00
H2       0.40130    1.01899    0.57891   1.00
C5       0.36046    1.02949    0.53174   1.00
H2       0.41561    0.99853    0.53226   1.00
H2       0.34146    1.04309    0.55432   1.00
H2       0.34137    1.01000    0.51407   1.00
C5       0.37920    1.06104    0.50582   1.00
H2       0.40047    1.07824    0.52324   1.00
C5       0.34796    1.08891    0.48953   1.00
H2       0.39431    1.04786    0.48007   1.00
C5       0.29539    0.87288    0.65517   1.00
H2       0.28099    0.85375    0.67715   1.00
H2       0.31119    0.85336    0.63452   1.00
C5       0.26502    0.89746    0.63300   1.00
C5       0.23238    0.87092    0.61725   1.00
H2       0.58518    0.99410    0.85786   1.00
C5       0.62770    0.94615    0.85412   1.00
H2       0.60527    0.98503    0.80823   1.00
C5       0.42900    0.68395    0.69837   1.00
H2       0.48065    0.70995    0.67051   1.00
H2       0.46644    0.73228    0.71793   1.00
C5       0.36797    1.12405    0.46997   1.00
H2       0.32937    1.07285    0.46711   1.00
H2       0.32859    1.09959    0.51437   1.00
H2       0.24586    0.84521    0.60102   1.00
H2       0.21406    0.85964    0.64261   1.00
C5       0.20628    0.89434    0.58917   1.00
H2       0.61525    0.91777    0.86616   1.00
H2       0.65030    0.93930    0.83071   1.00
H2       0.64208    0.96328    0.87874   1.00
H2       0.39963    0.68763    0.68320   1.00
H2       0.44380    0.65630    0.68729   1.00
H2       0.42430    0.68161    0.73121   1.00
H2       0.39520    1.11376    0.45389   1.00
H2       0.34699    1.13814    0.44836   1.00
H2       0.37654    1.14627    0.49319   1.00
H2       0.21754    0.89087    0.55807   1.00
H2       0.17507    0.88300    0.59098   1.00
H2       0.20691    0.92648    0.59766   1.00
C5       0.46348    1.29718    0.53215   1.00
H2       0.48446    1.31245    0.51276   1.00
H2       0.48103    1.27590    0.54918   1.00
C5       0.44400    1.32694    0.55959   1.00
C5       0.47064    1.33623    0.59455   1.00
H2       0.41581    1.31515    0.57059   1.00
O3       0.35515    1.14500    0.45286   1.00
C4       0.41518    1.18600    0.41462   1.00
C3c      0.43443    1.20743    0.44377   1.00
H1       0.44976    1.19225    0.46678   1.00
C3d      0.39586    1.20635    0.38459   1.00
C3       0.43379    1.24854    0.44408   1.00
O2       0.45716    1.26748    0.47068   1.00
C3       0.39453    1.24727    0.38522   1.00
H1       0.37819    1.26157    0.36235   1.00
C2       0.41348    1.26939    0.41472   1.00
C5       0.32028    1.14379    0.43094   1.00
H2       0.30968    1.11338    0.42637   1.00
H2       0.32430    1.15766    0.40175   1.00
C5       0.28932    1.16629    0.45361   1.00
H2       0.30038    1.19637    0.45913   1.00
H2       0.28529    1.15198    0.48254   1.00
C5       0.25053    1.16762    0.43100   1.00
H2       0.23945    1.13768    0.42514   1.00
H2       0.25422    1.18311    0.40270   1.00
C5       0.21947    1.18945    0.45502   1.00
C5       0.39826    1.17605    0.32537   1.00
C5       0.43563    1.27570    0.50491   1.00
H2       0.42183    1.15588    0.33492   1.00
H2       0.41187    1.20212    0.31140   1.00
H2       0.42547    1.24800    0.51868   1.00
H2       0.40921    1.29395    0.49898   1.00
H2       0.43861    1.35530    0.54438   1.00
H2       0.41261    1.10747    0.27844   1.00
H2       0.41949    1.15263    0.25147   1.00
C2       0.41236    1.06105    0.41453   1.00
C3       0.44385    1.08097    0.39696   1.00
O2       0.46847    1.06174    0.37157   1.00
C3       0.38323    1.08326    0.43358   1.00
H1       0.35928    1.06885    0.44818   1.00
C3a      0.44502    1.12213    0.39789   1.00
H1       0.46812    1.13702    0.38239   1.00
C3b      0.38382    1.12422    0.43338   1.00
C4       0.41482    1.14400    0.41538   1.00
O3       0.37401    1.18667    0.35690   1.00
C5       0.50379    1.05220    0.39046   1.00
H2       0.51899    1.07891    0.40130   1.00
C5       0.52949    1.03174    0.36046   1.00
H2       0.49853    1.03226    0.41561   1.00
H2       0.54309    1.05432    0.34146   1.00
H2       0.51000    1.01407    0.34137   1.00
C5       0.56104    1.00582    0.37920   1.00
H2       0.57824    1.02324    0.40047   1.00
C5       0.58891    0.98953    0.34796   1.00
H2       0.54786    0.98007    0.39431   1.00
C5       0.37288    1.15517    0.29539   1.00
H2       0.35375    1.17715    0.28099   1.00
H2       0.35336    1.13452    0.31119   1.00
C5       0.39746    1.13300    0.26502   1.00
C5       0.37092    1.11725    0.23238   1.00
H2       0.49410    1.35786    0.58518   1.00
C5       0.44615    1.35412    0.62770   1.00
H2       0.48503    1.30823    0.60527   1.00
C5       0.18395    1.19837    0.42900   1.00
H2       0.20995    1.17051    0.48065   1.00
H2       0.23228    1.21793    0.46644   1.00
C5       0.62405    0.96997    0.36797   1.00
H2       0.57285    0.96711    0.32937   1.00
H2       0.59959    1.01437    0.32859   1.00
H2       0.34521    1.10102    0.24586   1.00
H2       0.35964    1.14261    0.21406   1.00
C5       0.39434    1.08917    0.20628   1.00
H2       0.41777    1.36616    0.61525   1.00
H2       0.43930    1.33071    0.65030   1.00
H2       0.46328    1.37874    0.64208   1.00
H2       0.18763    1.18320    0.39963   1.00
H2       0.15630    1.18729    0.44380   1.00
H2       0.18161    1.23121    0.42430   1.00
H2       0.61376    0.95389    0.39520   1.00
H2       0.63814    0.94836    0.34699   1.00
H2       0.64627    0.99319    0.37654   1.00
H2       0.39087    1.05807    0.21754   1.00
H2       0.38300    1.09098    0.17507   1.00
H2       0.42648    1.09766    0.20691   1.00
C5       0.03282    1.03215    0.36652   1.00
H2       0.01755    1.01276    0.34554   1.00
H2       0.05410    1.04918    0.34897   1.00
C5       0.00306    1.05959    0.38600   1.00
C5       -0.00623   1.09455    0.35936   1.00
H2       0.01485    1.07059    0.41419   1.00
O3       0.18500    0.95286    0.47485   1.00
C4       0.14400    0.91462    0.41482   1.00
C3c      0.12257    0.94377    0.39557   1.00
H1       0.13775    0.96678    0.38024   1.00
C3d      0.12365    0.88459    0.43414   1.00
C3       0.08146    0.94408    0.39621   1.00
O2       0.06252    0.97068    0.37284   1.00
C3       0.08273    0.88522    0.43547   1.00
H1       0.06843    0.86235    0.45181   1.00
C2       0.06061    0.91472    0.41652   1.00
C5       0.18621    0.93094    0.50972   1.00
H2       0.21662    0.92637    0.52032   1.00
H2       0.17234    0.90175    0.50570   1.00
C5       0.16371    0.95361    0.54068   1.00
H2       0.13363    0.95913    0.52962   1.00
H2       0.17802    0.98254    0.54471   1.00
C5       0.16238    0.93100    0.57947   1.00
H2       0.19232    0.92514    0.59055   1.00
H2       0.14689    0.90270    0.57578   1.00
C5       0.14055    0.95502    0.61053   1.00
C5       0.15395    0.82537    0.43174   1.00
C5       0.05430    1.00491    0.39437   1.00
H2       0.17412    0.83492    0.40817   1.00
H2       0.12788    0.81140    0.41813   1.00
H2       0.08200    1.01868    0.40453   1.00
H2       0.03605    0.99898    0.42079   1.00
H2       -0.02530   1.04438    0.39139   1.00
H2       0.22253    0.77844    0.41739   1.00
H2       0.17737    0.75147    0.41051   1.00
C2       0.26895    0.91453    0.41764   1.00
C3       0.24903    0.89696    0.38615   1.00
O2       0.26826    0.87157    0.36153   1.00
C3       0.24674    0.93358    0.44677   1.00
H1       0.26115    0.94818    0.47072   1.00
C3a      0.20787    0.89789    0.38498   1.00
H1       0.19298    0.88239    0.36188   1.00
C3b      0.20578    0.93338    0.44618   1.00
C4       0.18600    0.91538    0.41518   1.00
O3       0.14333    0.85690    0.45599   1.00
C5       0.27780    0.89046    0.32621   1.00
H2       0.25109    0.90130    0.31101   1.00
C5       0.29826    0.86046    0.30051   1.00
H2       0.29774    0.91561    0.33147   1.00
H2       0.27568    0.84146    0.28691   1.00
H2       0.31593    0.84137    0.32000   1.00
C5       0.32418    0.87920    0.26896   1.00
H2       0.30676    0.90047    0.25176   1.00
C5       0.34047    0.84796    0.24109   1.00
H2       0.34993    0.89431    0.28214   1.00
C5       0.17483    0.79539    0.45712   1.00
H2       0.15285    0.78099    0.47625   1.00
H2       0.19548    0.81119    0.47664   1.00
C5       0.19700    0.76502    0.43254   1.00
C5       0.21275    0.73238    0.45908   1.00
H2       -0.02786   1.08518    0.33590   1.00
C5       -0.02412   1.12770    0.38385   1.00
H2       0.02177    1.10527    0.34497   1.00
C5       0.13163    0.92900    0.64605   1.00
H2       0.15949    0.98065    0.62005   1.00
H2       0.11207    0.96644    0.59772   1.00
C5       0.36003    0.86797    0.20595   1.00
H2       0.36289    0.82937    0.25715   1.00
H2       0.31563    0.82859    0.23041   1.00
H2       0.22898    0.74586    0.48479   1.00
H2       0.18739    0.71406    0.47036   1.00
C5       0.24083    0.70628    0.43566   1.00
H2       -0.03616   1.11525    0.41223   1.00
H2       -0.00071   1.15030    0.39070   1.00
H2       -0.04874   1.14208    0.36672   1.00
H2       0.14680    0.89963    0.64237   1.00
H2       0.14271    0.94380    0.67370   1.00
H2       0.09879    0.92430    0.64839   1.00
H2       0.37611    0.89520    0.21624   1.00
H2       0.38164    0.84699    0.19186   1.00
H2       0.33681    0.87654    0.18373   1.00
H2       0.27193    0.71754    0.43913   1.00
H2       0.23902    0.67507    0.44700   1.00
H2       0.23234    0.70691    0.40352   1.00
C5       0.79718    1.03215    0.46348   1.00
H2       0.81245    1.01276    0.48446   1.00
H2       0.77590    1.04918    0.48103   1.00
C5       0.82694    1.05959    0.44400   1.00
C5       0.83623    1.09455    0.47064   1.00
H2       0.81515    1.07059    0.41581   1.00
O3       0.64500    0.95286    0.35515   1.00
C4       0.68600    0.91462    0.41518   1.00
C3c      0.70743    0.94377    0.43443   1.00
H1       0.69225    0.96678    0.44976   1.00
C3d      0.70635    0.88459    0.39586   1.00
C3       0.74854    0.94408    0.43379   1.00
O2       0.76748    0.97068    0.45716   1.00
C3       0.74727    0.88522    0.39453   1.00
H1       0.76157    0.86235    0.37819   1.00
C2       0.76939    0.91472    0.41348   1.00
C5       0.64379    0.93094    0.32028   1.00
H2       0.61338    0.92637    0.30968   1.00
H2       0.65766    0.90175    0.32430   1.00
C5       0.66629    0.95361    0.28932   1.00
H2       0.69637    0.95913    0.30038   1.00
H2       0.65198    0.98254    0.28529   1.00
C5       0.66762    0.93100    0.25053   1.00
H2       0.63768    0.92514    0.23945   1.00
H2       0.68311    0.90270    0.25422   1.00
C5       0.68945    0.95502    0.21947   1.00
C5       0.67605    0.82537    0.39826   1.00
C5       0.77570    1.00491    0.43563   1.00
H2       0.65588    0.83492    0.42183   1.00
H2       0.70212    0.81140    0.41187   1.00
H2       0.74800    1.01868    0.42547   1.00
H2       0.79395    0.99898    0.40921   1.00
H2       0.85530    1.04438    0.43861   1.00
H2       0.60747    0.77844    0.41261   1.00
H2       0.65263    0.75147    0.41949   1.00
C2       0.56105    0.91453    0.41236   1.00
C3       0.58097    0.89696    0.44385   1.00
O2       0.56174    0.87157    0.46847   1.00
C3       0.58326    0.93358    0.38323   1.00
H1       0.56885    0.94818    0.35928   1.00
C3a      0.62213    0.89789    0.44502   1.00
H1       0.63702    0.88239    0.46812   1.00
C3b      0.62422    0.93338    0.38382   1.00
C4       0.64400    0.91538    0.41482   1.00
O3       0.68667    0.85690    0.37401   1.00
C5       0.55220    0.89046    0.50379   1.00
H2       0.57891    0.90130    0.51899   1.00
C5       0.53174    0.86046    0.52949   1.00
H2       0.53226    0.91561    0.49853   1.00
H2       0.55432    0.84146    0.54309   1.00
H2       0.51407    0.84137    0.51000   1.00
C5       0.50582    0.87920    0.56104   1.00
H2       0.52324    0.90047    0.57824   1.00
C5       0.48953    0.84796    0.58891   1.00
H2       0.48007    0.89431    0.54786   1.00
C5       0.65517    0.79539    0.37288   1.00
H2       0.67715    0.78099    0.35375   1.00
H2       0.63452    0.81119    0.35336   1.00
C5       0.63300    0.76502    0.39746   1.00
C5       0.61725    0.73238    0.37092   1.00
H2       0.85786    1.08518    0.49410   1.00
C5       0.85412    1.12770    0.44615   1.00
H2       0.80823    1.10527    0.48503   1.00
C5       0.69837    0.92900    0.18395   1.00
H2       0.67051    0.98065    0.20995   1.00
H2       0.71793    0.96644    0.23228   1.00
C5       0.46997    0.86797    0.62405   1.00
H2       0.46711    0.82937    0.57285   1.00
H2       0.51437    0.82859    0.59959   1.00
H2       0.60102    0.74586    0.34521   1.00
H2       0.64261    0.71406    0.35964   1.00
C5       0.58917    0.70628    0.39434   1.00
H2       0.86616    1.11525    0.41777   1.00
H2       0.83071    1.15030    0.43930   1.00
H2       0.87874    1.14208    0.46328   1.00
H2       0.68320    0.89963    0.18763   1.00
H2       0.68729    0.94380    0.15630   1.00
H2       0.73121    0.92430    0.18161   1.00
H2       0.45389    0.89520    0.61376   1.00
H2       0.44836    0.84699    0.63814   1.00
H2       0.49319    0.87654    0.64627   1.00
H2       0.55807    0.71754    0.39087   1.00
H2       0.59098    0.67507    0.38300   1.00
H2       0.59766    0.70691    0.42648   1.00
C5       0.36652    0.53282    0.53215   1.00
H2       0.34554    0.51755    0.51276   1.00
H2       0.34897    0.55410    0.54918   1.00
C5       0.38600    0.50306    0.55959   1.00
C5       0.35936    0.49377    0.59455   1.00
H2       0.41419    0.51485    0.57059   1.00
O3       0.47485    0.68500    0.45286   1.00
C4       0.41482    0.64400    0.41462   1.00
C3c      0.39557    0.62257    0.44377   1.00
H1       0.38024    0.63775    0.46678   1.00
C3d      0.43414    0.62365    0.38459   1.00
C3       0.39621    0.58146    0.44408   1.00
O2       0.37284    0.56252    0.47068   1.00
C3       0.43547    0.58273    0.38522   1.00
H1       0.45181    0.56843    0.36235   1.00
C2       0.41652    0.56061    0.41472   1.00
C5       0.50972    0.68621    0.43094   1.00
H2       0.52032    0.71662    0.42637   1.00
H2       0.50570    0.67234    0.40175   1.00
C5       0.54068    0.66371    0.45361   1.00
H2       0.52962    0.63363    0.45913   1.00
H2       0.54471    0.67802    0.48254   1.00
C5       0.57947    0.66238    0.43100   1.00
H2       0.59055    0.69232    0.42514   1.00
H2       0.57578    0.64689    0.40270   1.00
C5       0.61053    0.64055    0.45502   1.00
C5       0.43174    0.65395    0.32537   1.00
C5       0.39437    0.55430    0.50491   1.00
H2       0.40817    0.67412    0.33492   1.00
H2       0.41813    0.62788    0.31140   1.00
H2       0.40453    0.58200    0.51868   1.00
H2       0.42079    0.53605    0.49898   1.00
H2       0.39139    0.47470    0.54438   1.00
H2       0.41739    0.72253    0.27844   1.00
H2       0.41051    0.67737    0.25147   1.00
C2       0.41764    0.76895    0.41453   1.00
C3       0.38615    0.74903    0.39696   1.00
O2       0.36153    0.76826    0.37157   1.00
C3       0.44677    0.74674    0.43358   1.00
H1       0.47072    0.76115    0.44818   1.00
C3a      0.38498    0.70787    0.39789   1.00
H1       0.36188    0.69298    0.38239   1.00
C3b      0.44618    0.70578    0.43338   1.00
C4       0.41518    0.68600    0.41538   1.00
O3       0.45599    0.64333    0.35690   1.00
C5       0.32621    0.77780    0.39046   1.00
H2       0.31101    0.75109    0.40130   1.00
C5       0.30051    0.79826    0.36046   1.00
H2       0.33147    0.79774    0.41561   1.00
H2       0.28691    0.77568    0.34146   1.00
H2       0.32000    0.81593    0.34137   1.00
C5       0.26896    0.82418    0.37920   1.00
H2       0.25176    0.80676    0.40047   1.00
C5       0.24109    0.84047    0.34796   1.00
H2       0.28214    0.84993    0.39431   1.00
C5       0.45712    0.67483    0.29539   1.00
H2       0.47625    0.65285    0.28099   1.00
H2       0.47664    0.69548    0.31119   1.00
C5       0.43254    0.69700    0.26502   1.00
C5       0.45908    0.71275    0.23238   1.00
H2       0.33590    0.47214    0.58518   1.00
C5       0.38385    0.47588    0.62770   1.00
H2       0.34497    0.52177    0.60527   1.00
C5       0.64605    0.63163    0.42900   1.00
H2       0.62005    0.65949    0.48065   1.00
H2       0.59772    0.61207    0.46644   1.00
C5       0.20595    0.86003    0.36797   1.00
H2       0.25715    0.86289    0.32937   1.00
H2       0.23041    0.81563    0.32859   1.00
H2       0.48479    0.72898    0.24586   1.00
H2       0.47036    0.68739    0.21406   1.00
C5       0.43566    0.74083    0.20628   1.00
H2       0.41223    0.46384    0.61525   1.00
H2       0.39070    0.49929    0.65030   1.00
H2       0.36672    0.45126    0.64208   1.00
H2       0.64237    0.64680    0.39963   1.00
H2       0.67370    0.64271    0.44380   1.00
H2       0.64839    0.59879    0.42430   1.00
H2       0.21624    0.87611    0.39520   1.00
H2       0.19186    0.88164    0.34699   1.00
H2       0.18373    0.83681    0.37654   1.00
H2       0.43913    0.77193    0.21754   1.00
H2       0.44700    0.73902    0.17507   1.00
H2       0.40352    0.73234    0.20691   1.00
C5       0.53215    0.86652    0.03282   1.00
H2       0.51276    0.84554    0.01755   1.00
H2       0.54918    0.84897    0.05410   1.00
C5       0.55959    0.88600    0.00306   1.00
C5       0.59455    0.85936    -0.00623   1.00
H2       0.57059    0.91419    0.01485   1.00
O3       0.45286    0.97485    0.18500   1.00
C4       0.41462    0.91482    0.14400   1.00
C3c      0.44377    0.89557    0.12257   1.00
H1       0.46678    0.88024    0.13775   1.00
C3d      0.38459    0.93414    0.12365   1.00
C3       0.44408    0.89621    0.08146   1.00
O2       0.47068    0.87284    0.06252   1.00
C3       0.38522    0.93547    0.08273   1.00
H1       0.36235    0.95181    0.06843   1.00
C2       0.41472    0.91652    0.06061   1.00
C5       0.43094    1.00972    0.18621   1.00
H2       0.42637    1.02032    0.21662   1.00
H2       0.40175    1.00570    0.17234   1.00
C5       0.45361    1.04068    0.16371   1.00
H2       0.45913    1.02962    0.13363   1.00
H2       0.48254    1.04471    0.17802   1.00
C5       0.43100    1.07947    0.16238   1.00
H2       0.42514    1.09055    0.19232   1.00
H2       0.40270    1.07578    0.14689   1.00
C5       0.45502    1.11053    0.14055   1.00
C5       0.32537    0.93174    0.15395   1.00
C5       0.50491    0.89437    0.05430   1.00
H2       0.33492    0.90817    0.17412   1.00
H2       0.31140    0.91813    0.12788   1.00
H2       0.51868    0.90453    0.08200   1.00
H2       0.49898    0.92079    0.03605   1.00
H2       0.54438    0.89139    -0.02530   1.00
H2       0.27844    0.91739    0.22253   1.00
H2       0.25147    0.91051    0.17737   1.00
C2       0.41453    0.91764    0.26895   1.00
C3       0.39696    0.88615    0.24903   1.00
O2       0.37157    0.86153    0.26826   1.00
C3       0.43358    0.94677    0.24674   1.00
H1       0.44818    0.97072    0.26115   1.00
C3a      0.39789    0.88498    0.20787   1.00
H1       0.38239    0.86188    0.19298   1.00
C3b      0.43338    0.94618    0.20578   1.00
C4       0.41538    0.91518    0.18600   1.00
O3       0.35690    0.95599    0.14333   1.00
C5       0.39046    0.82621    0.27780   1.00
H2       0.40130    0.81101    0.25109   1.00
C5       0.36046    0.80051    0.29826   1.00
H2       0.41561    0.83147    0.29774   1.00
H2       0.34146    0.78691    0.27568   1.00
H2       0.34137    0.82000    0.31593   1.00
C5       0.37920    0.76896    0.32418   1.00
H2       0.40047    0.75176    0.30676   1.00
C5       0.34796    0.74109    0.34047   1.00
H2       0.39431    0.78214    0.34993   1.00
C5       0.29539    0.95712    0.17483   1.00
H2       0.28099    0.97625    0.15285   1.00
H2       0.31119    0.97664    0.19548   1.00
C5       0.26502    0.93254    0.19700   1.00
C5       0.23238    0.95908    0.21275   1.00
H2       0.58518    0.83590    -0.02786   1.00
C5       0.62770    0.88385    -0.02412   1.00
H2       0.60527    0.84497    0.02177   1.00
C5       0.42900    1.14605    0.13163   1.00
H2       0.48065    1.12005    0.15949   1.00
H2       0.46644    1.09772    0.11207   1.00
C5       0.36797    0.70595    0.36003   1.00
H2       0.32937    0.75715    0.36289   1.00
H2       0.32859    0.73041    0.31563   1.00
H2       0.24586    0.98479    0.22898   1.00
H2       0.21406    0.97036    0.18739   1.00
C5       0.20628    0.93566    0.24083   1.00
H2       0.61525    0.91223    -0.03616   1.00
H2       0.65030    0.89070    -0.00071   1.00
H2       0.64208    0.86672    -0.04874   1.00
H2       0.39963    1.14237    0.14680   1.00
H2       0.44380    1.17370    0.14271   1.00
H2       0.42430    1.14839    0.09879   1.00
H2       0.39520    0.71624    0.37611   1.00
H2       0.34699    0.69186    0.38164   1.00
H2       0.37654    0.68373    0.33681   1.00
H2       0.21754    0.93913    0.27193   1.00
H2       0.17507    0.94700    0.23902   1.00
H2       0.20691    0.90352    0.23234   1.00
C5       1.03215    0.46348    0.79718   1.00
H2       1.01276    0.48446    0.81245   1.00
H2       1.04918    0.48103    0.77590   1.00
C5       1.05959    0.44400    0.82694   1.00
C5       1.09455    0.47064    0.83623   1.00
H2       1.07059    0.41581    0.81515   1.00
O3       0.95286    0.35515    0.64500   1.00
C4       0.91462    0.41518    0.68600   1.00
C3c      0.94377    0.43443    0.70743   1.00
H1       0.96678    0.44976    0.69225   1.00
C3d      0.88459    0.39586    0.70635   1.00
C3       0.94408    0.43379    0.74854   1.00
O2       0.97068    0.45716    0.76748   1.00
C3       0.88522    0.39453    0.74727   1.00
H1       0.86235    0.37819    0.76157   1.00
C2       0.91472    0.41348    0.76939   1.00
C5       0.93094    0.32028    0.64379   1.00
H2       0.92637    0.30968    0.61338   1.00
H2       0.90175    0.32430    0.65766   1.00
C5       0.95361    0.28932    0.66629   1.00
H2       0.95913    0.30038    0.69637   1.00
H2       0.98254    0.28529    0.65198   1.00
C5       0.93100    0.25053    0.66762   1.00
H2       0.92514    0.23945    0.63768   1.00
H2       0.90270    0.25422    0.68311   1.00
C5       0.95502    0.21947    0.68945   1.00
C5       0.82537    0.39826    0.67605   1.00
C5       1.00491    0.43563    0.77570   1.00
H2       0.83492    0.42183    0.65588   1.00
H2       0.81140    0.41187    0.70212   1.00
H2       1.01868    0.42547    0.74800   1.00
H2       0.99898    0.40921    0.79395   1.00
H2       1.04438    0.43861    0.85530   1.00
H2       0.77844    0.41261    0.60747   1.00
H2       0.75147    0.41949    0.65263   1.00
C2       0.91453    0.41236    0.56105   1.00
C3       0.89696    0.44385    0.58097   1.00
O2       0.87157    0.46847    0.56174   1.00
C3       0.93358    0.38323    0.58326   1.00
H1       0.94818    0.35928    0.56885   1.00
C3a      0.89789    0.44502    0.62213   1.00
H1       0.88239    0.46812    0.63702   1.00
C3b      0.93338    0.38382    0.62422   1.00
C4       0.91538    0.41482    0.64400   1.00
O3       0.85690    0.37401    0.68667   1.00
C5       0.89046    0.50379    0.55220   1.00
H2       0.90130    0.51899    0.57891   1.00
C5       0.86046    0.52949    0.53174   1.00
H2       0.91561    0.49853    0.53226   1.00
H2       0.84146    0.54309    0.55432   1.00
H2       0.84137    0.51000    0.51407   1.00
C5       0.87920    0.56104    0.50582   1.00
H2       0.90047    0.57824    0.52324   1.00
C5       0.84796    0.58891    0.48953   1.00
H2       0.89431    0.54786    0.48007   1.00
C5       0.79539    0.37288    0.65517   1.00
H2       0.78099    0.35375    0.67715   1.00
H2       0.81119    0.35336    0.63452   1.00
C5       0.76502    0.39746    0.63300   1.00
C5       0.73238    0.37092    0.61725   1.00
H2       1.08518    0.49410    0.85786   1.00
C5       1.12770    0.44615    0.85412   1.00
H2       1.10527    0.48503    0.80823   1.00
C5       0.92900    0.18395    0.69837   1.00
H2       0.98065    0.20995    0.67051   1.00
H2       0.96644    0.23228    0.71793   1.00
C5       0.86797    0.62405    0.46997   1.00
H2       0.82937    0.57285    0.46711   1.00
H2       0.82859    0.59959    0.51437   1.00
H2       0.74586    0.34521    0.60102   1.00
H2       0.71406    0.35964    0.64261   1.00
C5       0.70628    0.39434    0.58917   1.00
H2       1.11525    0.41777    0.86616   1.00
H2       1.15030    0.43930    0.83071   1.00
H2       1.14208    0.46328    0.87874   1.00
H2       0.89963    0.18763    0.68320   1.00
H2       0.94380    0.15630    0.68729   1.00
H2       0.92430    0.18161    0.73121   1.00
H2       0.89520    0.61376    0.45389   1.00
H2       0.84699    0.63814    0.44836   1.00
H2       0.87654    0.64627    0.49319   1.00
H2       0.71754    0.39087    0.55807   1.00
H2       0.67507    0.38300    0.59098   1.00
H2       0.70691    0.42648    0.59766   1.00
C5       0.96348    0.79718    0.53215   1.00
H2       0.98446    0.81245    0.51276   1.00
H2       0.98103    0.77590    0.54918   1.00
C5       0.94400    0.82694    0.55959   1.00
C5       0.97064    0.83623    0.59455   1.00
H2       0.91581    0.81515    0.57059   1.00
O3       0.85515    0.64500    0.45286   1.00
C4       0.91518    0.68600    0.41462   1.00
C3c      0.93443    0.70743    0.44377   1.00
H1       0.94976    0.69225    0.46678   1.00
C3d      0.89586    0.70635    0.38459   1.00
C3       0.93379    0.74854    0.44408   1.00
O2       0.95716    0.76748    0.47068   1.00
C3       0.89453    0.74727    0.38522   1.00
H1       0.87819    0.76157    0.36235   1.00
C2       0.91348    0.76939    0.41472   1.00
C5       0.82028    0.64379    0.43094   1.00
H2       0.80968    0.61338    0.42637   1.00
H2       0.82430    0.65766    0.40175   1.00
C5       0.78932    0.66629    0.45361   1.00
H2       0.80038    0.69637    0.45913   1.00
H2       0.78529    0.65198    0.48254   1.00
C5       0.75053    0.66762    0.43100   1.00
H2       0.73945    0.63768    0.42514   1.00
H2       0.75422    0.68311    0.40270   1.00
C5       0.71947    0.68945    0.45502   1.00
C5       0.89826    0.67605    0.32537   1.00
C5       0.93563    0.77570    0.50491   1.00
H2       0.92183    0.65588    0.33492   1.00
H2       0.91187    0.70212    0.31140   1.00
H2       0.92547    0.74800    0.51868   1.00
H2       0.90921    0.79395    0.49898   1.00
H2       0.93861    0.85530    0.54438   1.00
H2       0.91261    0.60747    0.27844   1.00
H2       0.91949    0.65263    0.25147   1.00
C2       0.91236    0.56105    0.41453   1.00
C3       0.94385    0.58097    0.39696   1.00
O2       0.96847    0.56174    0.37157   1.00
C3       0.88323    0.58326    0.43358   1.00
H1       0.85928    0.56885    0.44818   1.00
C3a      0.94502    0.62213    0.39789   1.00
H1       0.96812    0.63702    0.38239   1.00
C3b      0.88382    0.62422    0.43338   1.00
C4       0.91482    0.64400    0.41538   1.00
O3       0.87401    0.68667    0.35690   1.00
C5       1.00379    0.55220    0.39046   1.00
H2       1.01899    0.57891    0.40130   1.00
C5       1.02949    0.53174    0.36046   1.00
H2       0.99853    0.53226    0.41561   1.00
H2       1.04309    0.55432    0.34146   1.00
H2       1.01000    0.51407    0.34137   1.00
C5       1.06104    0.50582    0.37920   1.00
H2       1.07824    0.52324    0.40047   1.00
C5       1.08891    0.48953    0.34796   1.00
H2       1.04786    0.48007    0.39431   1.00
C5       0.87288    0.65517    0.29539   1.00
H2       0.85375    0.67715    0.28099   1.00
H2       0.85336    0.63452    0.31119   1.00
C5       0.89746    0.63300    0.26502   1.00
C5       0.87092    0.61725    0.23238   1.00
H2       0.99410    0.85786    0.58518   1.00
C5       0.94615    0.85412    0.62770   1.00
H2       0.98503    0.80823    0.60527   1.00
C5       0.68395    0.69837    0.42900   1.00
H2       0.70995    0.67051    0.48065   1.00
H2       0.73228    0.71793    0.46644   1.00
C5       1.12405    0.46997    0.36797   1.00
H2       1.07285    0.46711    0.32937   1.00
H2       1.09959    0.51437    0.32859   1.00
H2       0.84521    0.60102    0.24586   1.00
H2       0.85964    0.64261    0.21406   1.00
C5       0.89434    0.58917    0.20628   1.00
H2       0.91777    0.86616    0.61525   1.00
H2       0.93930    0.83071    0.65030   1.00
H2       0.96328    0.87874    0.64208   1.00
H2       0.68763    0.68320    0.39963   1.00
H2       0.65630    0.68729    0.44380   1.00
H2       0.68161    0.73121    0.42430   1.00
H2       1.11376    0.45389    0.39520   1.00
H2       1.13814    0.44836    0.34699   1.00
H2       1.14627    0.49319    0.37654   1.00
H2       0.89087    0.55807    0.21754   1.00
H2       0.88300    0.59098    0.17507   1.00
H2       0.92648    0.59766    0.20691   1.00
C5       0.53282    0.53215    0.36652   1.00
H2       0.51755    0.51276    0.34554   1.00
H2       0.55410    0.54918    0.34897   1.00
C5       0.50306    0.55959    0.38600   1.00
C5       0.49377    0.59455    0.35936   1.00
H2       0.51485    0.57059    0.41419   1.00
O3       0.68500    0.45286    0.47485   1.00
C4       0.64400    0.41462    0.41482   1.00
C3c      0.62257    0.44377    0.39557   1.00
H1       0.63775    0.46678    0.38024   1.00
C3d      0.62365    0.38459    0.43414   1.00
C3       0.58146    0.44408    0.39621   1.00
O2       0.56252    0.47068    0.37284   1.00
C3       0.58273    0.38522    0.43547   1.00
H1       0.56843    0.36235    0.45181   1.00
C2       0.56061    0.41472    0.41652   1.00
C5       0.68621    0.43094    0.50972   1.00
H2       0.71662    0.42637    0.52032   1.00
H2       0.67234    0.40175    0.50570   1.00
C5       0.66371    0.45361    0.54068   1.00
H2       0.63363    0.45913    0.52962   1.00
H2       0.67802    0.48254    0.54471   1.00
C5       0.66238    0.43100    0.57947   1.00
H2       0.69232    0.42514    0.59055   1.00
H2       0.64689    0.40270    0.57578   1.00
C5       0.64055    0.45502    0.61053   1.00
C5       0.65395    0.32537    0.43174   1.00
C5       0.55430    0.50491    0.39437   1.00
H2       0.67412    0.33492    0.40817   1.00
H2       0.62788    0.31140    0.41813   1.00
H2       0.58200    0.51868    0.40453   1.00
H2       0.53605    0.49898    0.42079   1.00
H2       0.47470    0.54438    0.39139   1.00
H2       0.72253    0.27844    0.41739   1.00
H2       0.67737    0.25147    0.41051   1.00
C2       0.76895    0.41453    0.41764   1.00
C3       0.74903    0.39696    0.38615   1.00
O2       0.76826    0.37157    0.36153   1.00
C3       0.74674    0.43358    0.44677   1.00
H1       0.76115    0.44818    0.47072   1.00
C3a      0.70787    0.39789    0.38498   1.00
H1       0.69298    0.38239    0.36188   1.00
C3b      0.70578    0.43338    0.44618   1.00
C4       0.68600    0.41538    0.41518   1.00
O3       0.64333    0.35690    0.45599   1.00
C5       0.77780    0.39046    0.32621   1.00
H2       0.75109    0.40130    0.31101   1.00
C5       0.79826    0.36046    0.30051   1.00
H2       0.79774    0.41561    0.33147   1.00
H2       0.77568    0.34146    0.28691   1.00
H2       0.81593    0.34137    0.32000   1.00
C5       0.82418    0.37920    0.26896   1.00
H2       0.80676    0.40047    0.25176   1.00
C5       0.84047    0.34796    0.24109   1.00
H2       0.84993    0.39431    0.28214   1.00
C5       0.67483    0.29539    0.45712   1.00
H2       0.65285    0.28099    0.47625   1.00
H2       0.69548    0.31119    0.47664   1.00
C5       0.69700    0.26502    0.43254   1.00
C5       0.71275    0.23238    0.45908   1.00
H2       0.47214    0.58518    0.33590   1.00
C5       0.47588    0.62770    0.38385   1.00
H2       0.52177    0.60527    0.34497   1.00
C5       0.63163    0.42900    0.64605   1.00
H2       0.65949    0.48065    0.62005   1.00
H2       0.61207    0.46644    0.59772   1.00
C5       0.86003    0.36797    0.20595   1.00
H2       0.86289    0.32937    0.25715   1.00
H2       0.81563    0.32859    0.23041   1.00
H2       0.72898    0.24586    0.48479   1.00
H2       0.68739    0.21406    0.47036   1.00
C5       0.74083    0.20628    0.43566   1.00
H2       0.46384    0.61525    0.41223   1.00
H2       0.49929    0.65030    0.39070   1.00
H2       0.45126    0.64208    0.36672   1.00
H2       0.64680    0.39963    0.64237   1.00
H2       0.64271    0.44380    0.67370   1.00
H2       0.59879    0.42430    0.64839   1.00
H2       0.87611    0.39520    0.21624   1.00
H2       0.88164    0.34699    0.19186   1.00
H2       0.83681    0.37654    0.18373   1.00
H2       0.77193    0.21754    0.43913   1.00
H2       0.73902    0.17507    0.44700   1.00
H2       0.73234    0.20691    0.40352   1.00
C5       1.29718    0.53215    0.46348   1.00
H2       1.31245    0.51276    0.48446   1.00
H2       1.27590    0.54918    0.48103   1.00
C5       1.32694    0.55959    0.44400   1.00
C5       1.33623    0.59455    0.47064   1.00
H2       1.31515    0.57059    0.41581   1.00
O3       1.14500    0.45286    0.35515   1.00
C4       1.18600    0.41462    0.41518   1.00
C3c      1.20743    0.44377    0.43443   1.00
H1       1.19225    0.46678    0.44976   1.00
C3d      1.20635    0.38459    0.39586   1.00
C3       1.24854    0.44408    0.43379   1.00
O2       1.26748    0.47068    0.45716   1.00
C3       1.24727    0.38522    0.39453   1.00
H1       1.26157    0.36235    0.37819   1.00
C2       1.26939    0.41472    0.41348   1.00
C5       1.14379    0.43094    0.32028   1.00
H2       1.11338    0.42637    0.30968   1.00
H2       1.15766    0.40175    0.32430   1.00
C5       1.16629    0.45361    0.28932   1.00
H2       1.19637    0.45913    0.30038   1.00
H2       1.15198    0.48254    0.28529   1.00
C5       1.16762    0.43100    0.25053   1.00
H2       1.13768    0.42514    0.23945   1.00
H2       1.18311    0.40270    0.25422   1.00
C5       1.18945    0.45502    0.21947   1.00
C5       1.17605    0.32537    0.39826   1.00
C5       1.27570    0.50491    0.43563   1.00
H2       1.15588    0.33492    0.42183   1.00
H2       1.20212    0.31140    0.41187   1.00
H2       1.24800    0.51868    0.42547   1.00
H2       1.29395    0.49898    0.40921   1.00
H2       1.35530    0.54438    0.43861   1.00
H2       1.10747    0.27844    0.41261   1.00
H2       1.15263    0.25147    0.41949   1.00
C2       1.06105    0.41453    0.41236   1.00
C3       1.08097    0.39696    0.44385   1.00
O2       1.06174    0.37157    0.46847   1.00
C3       1.08326    0.43358    0.38323   1.00
H1       1.06885    0.44818    0.35928   1.00
C3a      1.12213    0.39789    0.44502   1.00
H1       1.13702    0.38239    0.46812   1.00
C3b      1.12422    0.43338    0.38382   1.00
C4       1.14400    0.41538    0.41482   1.00
O3       1.18667    0.35690    0.37401   1.00
C5       1.05220    0.39046    0.50379   1.00
H2       1.07891    0.40130    0.51899   1.00
C5       1.03174    0.36046    0.52949   1.00
H2       1.03226    0.41561    0.49853   1.00
H2       1.05432    0.34146    0.54309   1.00
H2       1.01407    0.34137    0.51000   1.00
C5       1.00582    0.37920    0.56104   1.00
H2       1.02324    0.40047    0.57824   1.00
C5       0.98953    0.34796    0.58891   1.00
H2       0.98007    0.39431    0.54786   1.00
C5       1.15517    0.29539    0.37288   1.00
H2       1.17715    0.28099    0.35375   1.00
H2       1.13452    0.31119    0.35336   1.00
C5       1.13300    0.26502    0.39746   1.00
C5       1.11725    0.23238    0.37092   1.00
H2       1.35786    0.58518    0.49410   1.00
C5       1.35412    0.62770    0.44615   1.00
H2       1.30823    0.60527    0.48503   1.00
C5       1.19837    0.42900    0.18395   1.00
H2       1.17051    0.48065    0.20995   1.00
H2       1.21793    0.46644    0.23228   1.00
C5       0.96997    0.36797    0.62405   1.00
H2       0.96711    0.32937    0.57285   1.00
H2       1.01437    0.32859    0.59959   1.00
H2       1.10102    0.24586    0.34521   1.00
H2       1.14261    0.21406    0.35964   1.00
C5       1.08917    0.20628    0.39434   1.00
H2       1.36616    0.61525    0.41777   1.00
H2       1.33071    0.65030    0.43930   1.00
H2       1.37874    0.64208    0.46328   1.00
H2       1.18320    0.39963    0.18763   1.00
H2       1.18729    0.44380    0.15630   1.00
H2       1.23121    0.42430    0.18161   1.00
H2       0.95389    0.39520    0.61376   1.00
H2       0.94836    0.34699    0.63814   1.00
H2       0.99319    0.37654    0.64627   1.00
H2       1.05807    0.21754    0.39087   1.00
H2       1.09098    0.17507    0.38300   1.00
H2       1.09766    0.20691    0.42648   1.00
C5       0.86652    0.03282    0.53215   1.00
H2       0.84554    0.01755    0.51276   1.00
H2       0.84897    0.05410    0.54918   1.00
C5       0.88600    0.00306    0.55959   1.00
C5       0.85936    -0.00623   0.59455   1.00
H2       0.91419    0.01485    0.57059   1.00
O3       0.97485    0.18500    0.45286   1.00
C4       0.91482    0.14400    0.41462   1.00
C3c      0.89557    0.12257    0.44377   1.00
H1       0.88024    0.13775    0.46678   1.00
C3d      0.93414    0.12365    0.38459   1.00
C3       0.89621    0.08146    0.44408   1.00
O2       0.87284    0.06252    0.47068   1.00
C3       0.93547    0.08273    0.38522   1.00
H1       0.95181    0.06843    0.36235   1.00
C2       0.91652    0.06061    0.41472   1.00
C5       1.00972    0.18621    0.43094   1.00
H2       1.02032    0.21662    0.42637   1.00
H2       1.00570    0.17234    0.40175   1.00
C5       1.04068    0.16371    0.45361   1.00
H2       1.02962    0.13363    0.45913   1.00
H2       1.04471    0.17802    0.48254   1.00
C5       1.07947    0.16238    0.43100   1.00
H2       1.09055    0.19232    0.42514   1.00
H2       1.07578    0.14689    0.40270   1.00
C5       1.11053    0.14055    0.45502   1.00
C5       0.93174    0.15395    0.32537   1.00
C5       0.89437    0.05430    0.50491   1.00
H2       0.90817    0.17412    0.33492   1.00
H2       0.91813    0.12788    0.31140   1.00
H2       0.90453    0.08200    0.51868   1.00
H2       0.92079    0.03605    0.49898   1.00
H2       0.89139    -0.02530   0.54438   1.00
H2       0.91739    0.22253    0.27844   1.00
H2       0.91051    0.17737    0.25147   1.00
C2       0.91764    0.26895    0.41453   1.00
C3       0.88615    0.24903    0.39696   1.00
O2       0.86153    0.26826    0.37157   1.00
C3       0.94677    0.24674    0.43358   1.00
H1       0.97072    0.26115    0.44818   1.00
C3a      0.88498    0.20787    0.39789   1.00
H1       0.86188    0.19298    0.38239   1.00
C3b      0.94618    0.20578    0.43338   1.00
C4       0.91518    0.18600    0.41538   1.00
O3       0.95599    0.14333    0.35690   1.00
C5       0.82621    0.27780    0.39046   1.00
H2       0.81101    0.25109    0.40130   1.00
C5       0.80051    0.29826    0.36046   1.00
H2       0.83147    0.29774    0.41561   1.00
H2       0.78691    0.27568    0.34146   1.00
H2       0.82000    0.31593    0.34137   1.00
C5       0.76896    0.32418    0.37920   1.00
H2       0.75176    0.30676    0.40047   1.00
C5       0.74109    0.34047    0.34796   1.00
H2       0.78214    0.34993    0.39431   1.00
C5       0.95712    0.17483    0.29539   1.00
H2       0.97625    0.15285    0.28099   1.00
H2       0.97664    0.19548    0.31119   1.00
C5       0.93254    0.19700    0.26502   1.00
C5       0.95908    0.21275    0.23238   1.00
H2       0.83590    -0.02786   0.58518   1.00
C5       0.88385    -0.02412   0.62770   1.00
H2       0.84497    0.02177    0.60527   1.00
C5       1.14605    0.13163    0.42900   1.00
H2       1.12005    0.15949    0.48065   1.00
H2       1.09772    0.11207    0.46644   1.00
C5       0.70595    0.36003    0.36797   1.00
H2       0.75715    0.36289    0.32937   1.00
H2       0.73041    0.31563    0.32859   1.00
H2       0.98479    0.22898    0.24586   1.00
H2       0.97036    0.18739    0.21406   1.00
C5       0.93566    0.24083    0.20628   1.00
H2       0.91223    -0.03616   0.61525   1.00
H2       0.89070    -0.00071   0.65030   1.00
H2       0.86672    -0.04874   0.64208   1.00
H2       1.14237    0.14680    0.39963   1.00
H2       1.17370    0.14271    0.44380   1.00
H2       1.14839    0.09879    0.42430   1.00
H2       0.71624    0.37611    0.39520   1.00
H2       0.69186    0.38164    0.34699   1.00
H2       0.68373    0.33681    0.37654   1.00
H2       0.93913    0.27193    0.21754   1.00
H2       0.94700    0.23902    0.17507   1.00
H2       0.90352    0.23234    0.20691   1.00
C5       1.03215    0.36652    0.03282   1.00
H2       1.01276    0.34554    0.01755   1.00
H2       1.04918    0.34897    0.05410   1.00
C5       1.05959    0.38600    0.00306   1.00
C5       1.09455    0.35936    -0.00623   1.00
H2       1.07059    0.41419    0.01485   1.00
O3       0.95286    0.47485    0.18500   1.00
C4       0.91462    0.41482    0.14400   1.00
C3c      0.94377    0.39557    0.12257   1.00
H1       0.96678    0.38024    0.13775   1.00
C3d      0.88459    0.43414    0.12365   1.00
C3       0.94408    0.39621    0.08146   1.00
O2       0.97068    0.37284    0.06252   1.00
C3       0.88522    0.43547    0.08273   1.00
H1       0.86235    0.45181    0.06843   1.00
C2       0.91472    0.41652    0.06061   1.00
C5       0.93094    0.50972    0.18621   1.00
H2       0.92637    0.52032    0.21662   1.00
H2       0.90175    0.50570    0.17234   1.00
C5       0.95361    0.54068    0.16371   1.00
H2       0.95913    0.52962    0.13363   1.00
H2       0.98254    0.54471    0.17802   1.00
C5       0.93100    0.57947    0.16238   1.00
H2       0.92514    0.59055    0.19232   1.00
H2       0.90270    0.57578    0.14689   1.00
C5       0.95502    0.61053    0.14055   1.00
C5       0.82537    0.43174    0.15395   1.00
C5       1.00491    0.39437    0.05430   1.00
H2       0.83492    0.40817    0.17412   1.00
H2       0.81140    0.41813    0.12788   1.00
H2       1.01868    0.40453    0.08200   1.00
H2       0.99898    0.42079    0.03605   1.00
H2       1.04438    0.39139    -0.02530   1.00
H2       0.77844    0.41739    0.22253   1.00
H2       0.75147    0.41051    0.17737   1.00
C2       0.91453    0.41764    0.26895   1.00
C3       0.89696    0.38615    0.24903   1.00
O2       0.87157    0.36153    0.26826   1.00
C3       0.93358    0.44677    0.24674   1.00
H1       0.94818    0.47072    0.26115   1.00
C3a      0.89789    0.38498    0.20787   1.00
H1       0.88239    0.36188    0.19298   1.00
C3b      0.93338    0.44618    0.20578   1.00
C4       0.91538    0.41518    0.18600   1.00
O3       0.85690    0.45599    0.14333   1.00
C5       0.89046    0.32621    0.27780   1.00
H2       0.90130    0.31101    0.25109   1.00
C5       0.86046    0.30051    0.29826   1.00
H2       0.91561    0.33147    0.29774   1.00
H2       0.84146    0.28691    0.27568   1.00
H2       0.84137    0.32000    0.31593   1.00
C5       0.87920    0.26896    0.32418   1.00
H2       0.90047    0.25176    0.30676   1.00
C5       0.84796    0.24109    0.34047   1.00
H2       0.89431    0.28214    0.34993   1.00
C5       0.79539    0.45712    0.17483   1.00
H2       0.78099    0.47625    0.15285   1.00
H2       0.81119    0.47664    0.19548   1.00
C5       0.76502    0.43254    0.19700   1.00
C5       0.73238    0.45908    0.21275   1.00
H2       1.08518    0.33590    -0.02786   1.00
C5       1.12770    0.38385    -0.02412   1.00
H2       1.10527    0.34497    0.02177   1.00
C5       0.92900    0.64605    0.13163   1.00
H2       0.98065    0.62005    0.15949   1.00
H2       0.96644    0.59772    0.11207   1.00
C5       0.86797    0.20595    0.36003   1.00
H2       0.82937    0.25715    0.36289   1.00
H2       0.82859    0.23041    0.31563   1.00
H2       0.74586    0.48479    0.22898   1.00
H2       0.71406    0.47036    0.18739   1.00
C5       0.70628    0.43566    0.24083   1.00
H2       1.11525    0.41223    -0.03616   1.00
H2       1.15030    0.39070    -0.00071   1.00
H2       1.14208    0.36672    -0.04874   1.00
H2       0.89963    0.64237    0.14680   1.00
H2       0.94380    0.67370    0.14271   1.00
H2       0.92430    0.64839    0.09879   1.00
H2       0.89520    0.21624    0.37611   1.00
H2       0.84699    0.19186    0.38164   1.00
H2       0.87654    0.18373    0.33681   1.00
H2       0.71754    0.43913    0.27193   1.00
H2       0.67507    0.44700    0.23902   1.00
H2       0.70691    0.40352    0.23234   1.00
