data_IRMOF10_SG202_interpen_Ligand2cp_label_k.

_audit_creation_method             'generated by an auxiliary program of Tobunporous'

_symmetry_space_group_name_H-M     'P 1'
_symmetry_Int_Tables_number        1
_symmetry_cell_setting             triclinic

_cell_length_a                    34.2800
_cell_length_b                    34.2800
_cell_length_c                    34.2800
_cell_angle_alpha                 90.0000
_cell_angle_beta                  90.0000
_cell_angle_gamma                 90.0000

loop_
_atom_site_label
_atom_site_fract_x
_atom_site_fract_y
_atom_site_fract_z
_atom_site_occupancy
O1       0.75000    0.75000    0.75000   1.00
Zn1      0.71720    0.78280    0.78280   1.00
Zn1      0.78280    0.71720    0.78280   1.00
Zn1      0.78280    0.78280    0.71720   1.00
Zn1      0.71720    0.71720    0.71720   1.00
O2       0.72650    0.77350    0.83820   1.00
O2       0.72650    0.83820    0.77350   1.00
O2       0.66180    0.77350    0.77350   1.00
O2       0.77350    0.72650    0.83820   1.00
O2       0.83820    0.72650    0.77350   1.00
O2       0.77350    0.66180    0.77350   1.00
O2       0.77350    0.83820    0.72650   1.00
O2       0.83820    0.77350    0.72650   1.00
O2       0.77350    0.77350    0.66180   1.00
O2       0.66180    0.72650    0.72650   1.00
O2       0.72650    0.66180    0.72650   1.00
O2       0.72650    0.72650    0.66180   1.00
C1       0.75000    0.75000    0.85520   1.00
C1       0.75000    0.85520    0.75000   1.00
C1       0.64480    0.75000    0.75000   1.00
C1       0.85520    0.75000    0.75000   1.00
C1       0.75000    0.64480    0.75000   1.00
C1       0.75000    0.75000    0.64480   1.00
O1       0.25000    0.25000    0.75000   1.00
Zn1      0.21720    0.28280    0.78280   1.00
Zn1      0.28280    0.21720    0.78280   1.00
Zn1      0.28280    0.28280    0.71720   1.00
Zn1      0.21720    0.21720    0.71720   1.00
O2       0.22650    0.27350    0.83820   1.00
O2       0.22650    0.33820    0.77350   1.00
O2       0.16180    0.27350    0.77350   1.00
O2       0.27350    0.22650    0.83820   1.00
O2       0.33820    0.22650    0.77350   1.00
O2       0.27350    0.16180    0.77350   1.00
O2       0.27350    0.33820    0.72650   1.00
O2       0.33820    0.27350    0.72650   1.00
O2       0.27350    0.27350    0.66180   1.00
O2       0.16180    0.22650    0.72650   1.00
O2       0.22650    0.16180    0.72650   1.00
O2       0.22650    0.22650    0.66180   1.00
C1       0.25000    0.25000    0.85520   1.00
C1       0.25000    0.35520    0.75000   1.00
C1       0.14480    0.25000    0.75000   1.00
C1       0.35520    0.25000    0.75000   1.00
C1       0.25000    0.14480    0.75000   1.00
C1       0.25000    0.25000    0.64480   1.00
O1       0.25000    0.75000    0.25000   1.00
Zn1      0.21720    0.78280    0.28280   1.00
Zn1      0.28280    0.71720    0.28280   1.00
Zn1      0.28280    0.78280    0.21720   1.00
Zn1      0.21720    0.71720    0.21720   1.00
O2       0.22650    0.77350    0.33820   1.00
O2       0.22650    0.83820    0.27350   1.00
O2       0.16180    0.77350    0.27350   1.00
O2       0.27350    0.72650    0.33820   1.00
O2       0.33820    0.72650    0.27350   1.00
O2       0.27350    0.66180    0.27350   1.00
O2       0.27350    0.83820    0.22650   1.00
O2       0.33820    0.77350    0.22650   1.00
O2       0.27350    0.77350    0.16180   1.00
O2       0.16180    0.72650    0.22650   1.00
O2       0.22650    0.66180    0.22650   1.00
O2       0.22650    0.72650    0.16180   1.00
C1       0.25000    0.75000    0.35520   1.00
C1       0.25000    0.85520    0.25000   1.00
C1       0.14480    0.75000    0.25000   1.00
C1       0.35520    0.75000    0.25000   1.00
C1       0.25000    0.64480    0.25000   1.00
C1       0.25000    0.75000    0.14480   1.00
O1       0.75000    0.25000    0.25000   1.00
Zn1      0.71720    0.28280    0.28280   1.00
Zn1      0.78280    0.21720    0.28280   1.00
Zn1      0.78280    0.28280    0.21720   1.00
Zn1      0.71720    0.21720    0.21720   1.00
O2       0.72650    0.27350    0.33820   1.00
O2       0.72650    0.33820    0.27350   1.00
O2       0.66180    0.27350    0.27350   1.00
O2       0.77350    0.22650    0.33820   1.00
O2       0.83820    0.22650    0.27350   1.00
O2       0.77350    0.16180    0.27350   1.00
O2       0.77350    0.33820    0.22650   1.00
O2       0.83820    0.27350    0.22650   1.00
O2       0.77350    0.27350    0.16180   1.00
O2       0.66180    0.22650    0.22650   1.00
O2       0.72650    0.16180    0.22650   1.00
O2       0.72650    0.22650    0.16180   1.00
C1       0.75000    0.25000    0.35520   1.00
C1       0.75000    0.35520    0.25000   1.00
C1       0.64480    0.25000    0.25000   1.00
C1       0.85520    0.25000    0.25000   1.00
C1       0.75000    0.14480    0.25000   1.00
C1       0.75000    0.25000    0.14480   1.00
O1       0.25000    0.25000    0.25000   1.00
Zn1      0.28280    0.21720    0.21720   1.00
Zn1      0.21720    0.28280    0.21720   1.00
Zn1      0.21720    0.21720    0.28280   1.00
Zn1      0.28280    0.28280    0.28280   1.00
O2       0.27350    0.22650    0.16180   1.00
O2       0.27350    0.16180    0.22650   1.00
O2       0.33820    0.22650    0.22650   1.00
O2       0.22650    0.27350    0.16180   1.00
O2       0.16180    0.27350    0.22650   1.00
O2       0.22650    0.33820    0.22650   1.00
O2       0.22650    0.16180    0.27350   1.00
O2       0.16180    0.22650    0.27350   1.00
O2       0.22650    0.22650    0.33820   1.00
O2       0.33820    0.27350    0.27350   1.00
O2       0.27350    0.33820    0.27350   1.00
O2       0.27350    0.27350    0.33820   1.00
C1       0.25000    0.25000    0.14480   1.00
C1       0.25000    0.14480    0.25000   1.00
C1       0.35520    0.25000    0.25000   1.00
C1       0.14480    0.25000    0.25000   1.00
C1       0.25000    0.35520    0.25000   1.00
C1       0.25000    0.25000    0.35520   1.00
O1       0.75000    0.75000    0.25000   1.00
Zn1      0.78280    0.71720    0.21720   1.00
Zn1      0.71720    0.78280    0.21720   1.00
Zn1      0.71720    0.71720    0.28280   1.00
Zn1      0.78280    0.78280    0.28280   1.00
O2       0.77350    0.72650    0.16180   1.00
O2       0.77350    0.66180    0.22650   1.00
O2       0.83820    0.72650    0.22650   1.00
O2       0.72650    0.77350    0.16180   1.00
O2       0.66180    0.77350    0.22650   1.00
O2       0.72650    0.83820    0.22650   1.00
O2       0.72650    0.66180    0.27350   1.00
O2       0.66180    0.72650    0.27350   1.00
O2       0.72650    0.72650    0.33820   1.00
O2       0.83820    0.77350    0.27350   1.00
O2       0.77350    0.83820    0.27350   1.00
O2       0.77350    0.77350    0.33820   1.00
C1       0.75000    0.75000    0.14480   1.00
C1       0.75000    0.64480    0.25000   1.00
C1       0.85520    0.75000    0.25000   1.00
C1       0.64480    0.75000    0.25000   1.00
C1       0.75000    0.85520    0.25000   1.00
C1       0.75000    0.75000    0.35520   1.00
O1       0.75000    0.25000    0.75000   1.00
Zn1      0.78280    0.21720    0.71720   1.00
Zn1      0.71720    0.28280    0.71720   1.00
Zn1      0.71720    0.21720    0.78280   1.00
Zn1      0.78280    0.28280    0.78280   1.00
O2       0.77350    0.22650    0.66180   1.00
O2       0.77350    0.16180    0.72650   1.00
O2       0.83820    0.22650    0.72650   1.00
O2       0.72650    0.27350    0.66180   1.00
O2       0.66180    0.27350    0.72650   1.00
O2       0.72650    0.33820    0.72650   1.00
O2       0.72650    0.16180    0.77350   1.00
O2       0.66180    0.22650    0.77350   1.00
O2       0.72650    0.22650    0.83820   1.00
O2       0.83820    0.27350    0.77350   1.00
O2       0.77350    0.33820    0.77350   1.00
O2       0.77350    0.27350    0.83820   1.00
C1       0.75000    0.25000    0.64480   1.00
C1       0.75000    0.14480    0.75000   1.00
C1       0.85520    0.25000    0.75000   1.00
C1       0.64480    0.25000    0.75000   1.00
C1       0.75000    0.35520    0.75000   1.00
C1       0.75000    0.25000    0.85520   1.00
O1       0.25000    0.75000    0.75000   1.00
Zn1      0.28280    0.71720    0.71720   1.00
Zn1      0.21720    0.78280    0.71720   1.00
Zn1      0.21720    0.71720    0.78280   1.00
Zn1      0.28280    0.78280    0.78280   1.00
O2       0.27350    0.72650    0.66180   1.00
O2       0.27350    0.66180    0.72650   1.00
O2       0.33820    0.72650    0.72650   1.00
O2       0.22650    0.77350    0.66180   1.00
O2       0.16180    0.77350    0.72650   1.00
O2       0.22650    0.83820    0.72650   1.00
O2       0.22650    0.66180    0.77350   1.00
O2       0.16180    0.72650    0.77350   1.00
O2       0.22650    0.72650    0.83820   1.00
O2       0.33820    0.77350    0.77350   1.00
O2       0.27350    0.83820    0.77350   1.00
O2       0.27350    0.77350    0.83820   1.00
C1       0.25000    0.75000    0.64480   1.00
C1       0.25000    0.64480    0.75000   1.00
C1       0.35520    0.75000    0.75000   1.00
C1       0.14480    0.75000    0.75000   1.00
C1       0.25000    0.85520    0.75000   1.00
C1       0.25000    0.75000    0.85520   1.00
O1       0.91500    0.91500    0.91500   1.00
Zn1      0.88220    0.94780    0.94780   1.00
Zn1      0.94780    0.88220    0.94780   1.00
Zn1      0.94780    0.94780    0.88220   1.00
Zn1      0.88220    0.88220    0.88220   1.00
O2       0.89150    0.93850    1.00320   1.00
O2       0.89150    1.00320    0.93850   1.00
O2       0.82680    0.93850    0.93850   1.00
O2       0.93850    0.89150    1.00320   1.00
O2       1.00320    0.89150    0.93850   1.00
O2       0.93850    0.82680    0.93850   1.00
O2       0.93850    1.00320    0.89150   1.00
O2       1.00320    0.93850    0.89150   1.00
O2       0.93850    0.93850    0.82680   1.00
O2       0.82680    0.89150    0.89150   1.00
O2       0.89150    0.82680    0.89150   1.00
O2       0.89150    0.89150    0.82680   1.00
C1       0.91500    0.91500    1.02020   1.00
C1       0.91500    1.02020    0.91500   1.00
C1       0.80980    0.91500    0.91500   1.00
C1       1.02020    0.91500    0.91500   1.00
C1       0.91500    0.80980    0.91500   1.00
C1       0.91500    0.91500    0.80980   1.00
O1       0.41500    0.41500    0.91500   1.00
Zn1      0.38220    0.44780    0.94780   1.00
Zn1      0.44780    0.38220    0.94780   1.00
Zn1      0.44780    0.44780    0.88220   1.00
Zn1      0.38220    0.38220    0.88220   1.00
O2       0.39150    0.43850    1.00320   1.00
O2       0.39150    0.50320    0.93850   1.00
O2       0.32680    0.43850    0.93850   1.00
O2       0.43850    0.39150    1.00320   1.00
O2       0.50320    0.39150    0.93850   1.00
O2       0.43850    0.32680    0.93850   1.00
O2       0.43850    0.50320    0.89150   1.00
O2       0.50320    0.43850    0.89150   1.00
O2       0.43850    0.43850    0.82680   1.00
O2       0.32680    0.39150    0.89150   1.00
O2       0.39150    0.32680    0.89150   1.00
O2       0.39150    0.39150    0.82680   1.00
C1       0.41500    0.41500    1.02020   1.00
C1       0.41500    0.52020    0.91500   1.00
C1       0.30980    0.41500    0.91500   1.00
C1       0.52020    0.41500    0.91500   1.00
C1       0.41500    0.30980    0.91500   1.00
C1       0.41500    0.41500    0.80980   1.00
O1       0.41500    0.91500    0.41500   1.00
Zn1      0.38220    0.94780    0.44780   1.00
Zn1      0.44780    0.88220    0.44780   1.00
Zn1      0.44780    0.94780    0.38220   1.00
Zn1      0.38220    0.88220    0.38220   1.00
O2       0.39150    0.93850    0.50320   1.00
O2       0.39150    1.00320    0.43850   1.00
O2       0.32680    0.93850    0.43850   1.00
O2       0.43850    0.89150    0.50320   1.00
O2       0.50320    0.89150    0.43850   1.00
O2       0.43850    0.82680    0.43850   1.00
O2       0.43850    1.00320    0.39150   1.00
O2       0.50320    0.93850    0.39150   1.00
O2       0.43850    0.93850    0.32680   1.00
O2       0.32680    0.89150    0.39150   1.00
O2       0.39150    0.82680    0.39150   1.00
O2       0.39150    0.89150    0.32680   1.00
C1       0.41500    0.91500    0.52020   1.00
C1       0.41500    1.02020    0.41500   1.00
C1       0.30980    0.91500    0.41500   1.00
C1       0.52020    0.91500    0.41500   1.00
C1       0.41500    0.80980    0.41500   1.00
C1       0.41500    0.91500    0.30980   1.00
O1       0.91500    0.41500    0.41500   1.00
Zn1      0.88220    0.44780    0.44780   1.00
Zn1      0.94780    0.38220    0.44780   1.00
Zn1      0.94780    0.44780    0.38220   1.00
Zn1      0.88220    0.38220    0.38220   1.00
O2       0.89150    0.43850    0.50320   1.00
O2       0.89150    0.50320    0.43850   1.00
O2       0.82680    0.43850    0.43850   1.00
O2       0.93850    0.39150    0.50320   1.00
O2       1.00320    0.39150    0.43850   1.00
O2       0.93850    0.32680    0.43850   1.00
O2       0.93850    0.50320    0.39150   1.00
O2       1.00320    0.43850    0.39150   1.00
O2       0.93850    0.43850    0.32680   1.00
O2       0.82680    0.39150    0.39150   1.00
O2       0.89150    0.32680    0.39150   1.00
O2       0.89150    0.39150    0.32680   1.00
C1       0.91500    0.41500    0.52020   1.00
C1       0.91500    0.52020    0.41500   1.00
C1       0.80980    0.41500    0.41500   1.00
C1       1.02020    0.41500    0.41500   1.00
C1       0.91500    0.30980    0.41500   1.00
C1       0.91500    0.41500    0.30980   1.00
O1       0.41500    0.41500    0.41500   1.00
Zn1      0.44780    0.38220    0.38220   1.00
Zn1      0.38220    0.44780    0.38220   1.00
Zn1      0.38220    0.38220    0.44780   1.00
Zn1      0.44780    0.44780    0.44780   1.00
O2       0.43850    0.39150    0.32680   1.00
O2       0.43850    0.32680    0.39150   1.00
O2       0.50320    0.39150    0.39150   1.00
O2       0.39150    0.43850    0.32680   1.00
O2       0.32680    0.43850    0.39150   1.00
O2       0.39150    0.50320    0.39150   1.00
O2       0.39150    0.32680    0.43850   1.00
O2       0.32680    0.39150    0.43850   1.00
O2       0.39150    0.39150    0.50320   1.00
O2       0.50320    0.43850    0.43850   1.00
O2       0.43850    0.50320    0.43850   1.00
O2       0.43850    0.43850    0.50320   1.00
C1       0.41500    0.41500    0.30980   1.00
C1       0.41500    0.30980    0.41500   1.00
C1       0.52020    0.41500    0.41500   1.00
C1       0.30980    0.41500    0.41500   1.00
C1       0.41500    0.52020    0.41500   1.00
C1       0.41500    0.41500    0.52020   1.00
O1       0.91500    0.91500    0.41500   1.00
Zn1      0.94780    0.88220    0.38220   1.00
Zn1      0.88220    0.94780    0.38220   1.00
Zn1      0.88220    0.88220    0.44780   1.00
Zn1      0.94780    0.94780    0.44780   1.00
O2       0.93850    0.89150    0.32680   1.00
O2       0.93850    0.82680    0.39150   1.00
O2       1.00320    0.89150    0.39150   1.00
O2       0.89150    0.93850    0.32680   1.00
O2       0.82680    0.93850    0.39150   1.00
O2       0.89150    1.00320    0.39150   1.00
O2       0.89150    0.82680    0.43850   1.00
O2       0.82680    0.89150    0.43850   1.00
O2       0.89150    0.89150    0.50320   1.00
O2       1.00320    0.93850    0.43850   1.00
O2       0.93850    1.00320    0.43850   1.00
O2       0.93850    0.93850    0.50320   1.00
C1       0.91500    0.91500    0.30980   1.00
C1       0.91500    0.80980    0.41500   1.00
C1       1.02020    0.91500    0.41500   1.00
C1       0.80980    0.91500    0.41500   1.00
C1       0.91500    1.02020    0.41500   1.00
C1       0.91500    0.91500    0.52020   1.00
O1       0.91500    0.41500    0.91500   1.00
Zn1      0.94780    0.38220    0.88220   1.00
Zn1      0.88220    0.44780    0.88220   1.00
Zn1      0.88220    0.38220    0.94780   1.00
Zn1      0.94780    0.44780    0.94780   1.00
O2       0.93850    0.39150    0.82680   1.00
O2       0.93850    0.32680    0.89150   1.00
O2       1.00320    0.39150    0.89150   1.00
O2       0.89150    0.43850    0.82680   1.00
O2       0.82680    0.43850    0.89150   1.00
O2       0.89150    0.50320    0.89150   1.00
O2       0.89150    0.32680    0.93850   1.00
O2       0.82680    0.39150    0.93850   1.00
O2       0.89150    0.39150    1.00320   1.00
O2       1.00320    0.43850    0.93850   1.00
O2       0.93850    0.50320    0.93850   1.00
O2       0.93850    0.43850    1.00320   1.00
C1       0.91500    0.41500    0.80980   1.00
C1       0.91500    0.30980    0.91500   1.00
C1       1.02020    0.41500    0.91500   1.00
C1       0.80980    0.41500    0.91500   1.00
C1       0.91500    0.52020    0.91500   1.00
C1       0.91500    0.41500    1.02020   1.00
O1       0.41500    0.91500    0.91500   1.00
Zn1      0.44780    0.88220    0.88220   1.00
Zn1      0.38220    0.94780    0.88220   1.00
Zn1      0.38220    0.88220    0.94780   1.00
Zn1      0.44780    0.94780    0.94780   1.00
O2       0.43850    0.89150    0.82680   1.00
O2       0.43850    0.82680    0.89150   1.00
O2       0.50320    0.89150    0.89150   1.00
O2       0.39150    0.93850    0.82680   1.00
O2       0.32680    0.93850    0.89150   1.00
O2       0.39150    1.00320    0.89150   1.00
O2       0.39150    0.82680    0.93850   1.00
O2       0.32680    0.89150    0.93850   1.00
O2       0.39150    0.89150    1.00320   1.00
O2       0.50320    0.93850    0.93850   1.00
O2       0.43850    1.00320    0.93850   1.00
O2       0.43850    0.93850    1.00320   1.00
C1       0.41500    0.91500    0.80980   1.00
C1       0.41500    0.80980    0.91500   1.00
C1       0.52020    0.91500    0.91500   1.00
C1       0.30980    0.91500    0.91500   1.00
C1       0.41500    1.02020    0.91500   1.00
C1       0.41500    0.91500    1.02020   1.00
C2       0.75000    0.75000    0.89720   1.00
C3a      0.78374    0.74096    0.91780   1.00
C3a      0.71626    0.75904    0.91780   1.00
H1       0.80720    0.73467    0.90380   1.00
H1       0.69280    0.76533    0.90380   1.00
C3a      0.78408    0.74087    0.95870   1.00
C3a      0.71592    0.75913    0.95870   1.00
H11      0.80760    0.73457    0.97250   1.00
H12      0.69240    0.76543    0.97250   1.00
C4       0.75000    0.75000    0.97940   1.00
C4       0.75000    0.75000    0.02060   1.00
C3a      0.71592    0.75913    0.04130   1.00
C3a      0.78408    0.74087    0.04130   1.00
H13      0.69240    0.76543    0.02750   1.00
H14      0.80760    0.73457    0.02750   1.00
C3a      0.71626    0.75904    0.08220   1.00
C3a      0.78374    0.74096    0.08220   1.00
H1       0.69280    0.76533    0.09620   1.00
H1       0.80720    0.73467    0.09620   1.00
C2       0.75000    0.75000    0.10280   1.00
C2       0.75000    0.89720    0.75000   1.00
C3a      0.74096    0.91780    0.78374   1.00
C3a      0.75904    0.91780    0.71626   1.00
H1       0.73467    0.90380    0.80720   1.00
H1       0.76533    0.90380    0.69280   1.00
C3a      0.74087    0.95870    0.78408   1.00
C3a      0.75913    0.95870    0.71592   1.00
H11      0.73457    0.97250    0.80760   1.00
H12      0.76543    0.97250    0.69240   1.00
C4       0.75000    0.97940    0.75000   1.00
C4       0.75000    0.02060    0.75000   1.00
C3a      0.75913    0.04130    0.71592   1.00
C3a      0.74087    0.04130    0.78408   1.00
H13      0.76543    0.02750    0.69240   1.00
H14      0.73457    0.02750    0.80760   1.00
C3a      0.75904    0.08220    0.71626   1.00
C3a      0.74096    0.08220    0.78374   1.00
H1       0.76533    0.09620    0.69280   1.00
H1       0.73467    0.09620    0.80720   1.00
C2       0.75000    0.10280    0.75000   1.00
C2       0.60280    0.75000    0.75000   1.00
C3a      0.58220    0.78374    0.75904   1.00
C3a      0.58220    0.71626    0.74096   1.00
H1       0.59620    0.80720    0.76533   1.00
H1       0.59620    0.69280    0.73467   1.00
C3a      0.54130    0.78408    0.75913   1.00
C3a      0.54130    0.71592    0.74087   1.00
H11      0.52750    0.80760    0.76543   1.00
H12      0.52750    0.69240    0.73457   1.00
C4       0.52060    0.75000    0.75000   1.00
C4       0.47940    0.75000    0.75000   1.00
C3a      0.45870    0.71592    0.74087   1.00
C3a      0.45870    0.78408    0.75913   1.00
H13      0.47250    0.69240    0.73457   1.00
H14      0.47250    0.80760    0.76543   1.00
C3a      0.41780    0.71626    0.74096   1.00
C3a      0.41780    0.78374    0.75904   1.00
H1       0.40380    0.69280    0.73467   1.00
H1       0.40380    0.80720    0.76533   1.00
C2       0.39720    0.75000    0.75000   1.00
C2       0.89720    0.75000    0.75000   1.00
C3a      0.91780    0.78374    0.74096   1.00
C3a      0.91780    0.71626    0.75904   1.00
H1       0.90380    0.80720    0.73467   1.00
H1       0.90380    0.69280    0.76533   1.00
C3a      0.95870    0.78408    0.74087   1.00
C3a      0.95870    0.71592    0.75913   1.00
H11      0.97250    0.80760    0.73457   1.00
H12      0.97250    0.69240    0.76543   1.00
C4       0.97940    0.75000    0.75000   1.00
C4       0.02060    0.75000    0.75000   1.00
C3a      0.04130    0.71592    0.75913   1.00
C3a      0.04130    0.78408    0.74087   1.00
H13      0.02750    0.69240    0.76543   1.00
H14      0.02750    0.80760    0.73457   1.00
C3a      0.08220    0.71626    0.75904   1.00
C3a      0.08220    0.78374    0.74096   1.00
H1       0.09620    0.69280    0.76533   1.00
H1       0.09620    0.80720    0.73467   1.00
C2       0.10280    0.75000    0.75000   1.00
C2       0.75000    0.60280    0.75000   1.00
C3a      0.75904    0.58220    0.78374   1.00
C3a      0.74096    0.58220    0.71626   1.00
H1       0.76533    0.59620    0.80720   1.00
H1       0.73467    0.59620    0.69280   1.00
C3a      0.75913    0.54130    0.78408   1.00
C3a      0.74087    0.54130    0.71592   1.00
H11      0.76543    0.52750    0.80760   1.00
H12      0.73457    0.52750    0.69240   1.00
C4       0.75000    0.52060    0.75000   1.00
C4       0.75000    0.47940    0.75000   1.00
C3a      0.74087    0.45870    0.71592   1.00
C3a      0.75913    0.45870    0.78408   1.00
H13      0.73457    0.47250    0.69240   1.00
H14      0.76543    0.47250    0.80760   1.00
C3a      0.74096    0.41780    0.71626   1.00
C3a      0.75904    0.41780    0.78374   1.00
H1       0.73467    0.40380    0.69280   1.00
H1       0.76533    0.40380    0.80720   1.00
C2       0.75000    0.39720    0.75000   1.00
C2       0.75000    0.75000    0.60280   1.00
C3a      0.78374    0.75904    0.58220   1.00
C3a      0.71626    0.74096    0.58220   1.00
H1       0.80720    0.76533    0.59620   1.00
H1       0.69280    0.73467    0.59620   1.00
C3a      0.78408    0.75913    0.54130   1.00
C3a      0.71592    0.74087    0.54130   1.00
H11      0.80760    0.76543    0.52750   1.00
H12      0.69240    0.73457    0.52750   1.00
C4       0.75000    0.75000    0.52060   1.00
C4       0.75000    0.75000    0.47940   1.00
C3a      0.71592    0.74087    0.45870   1.00
C3a      0.78408    0.75913    0.45870   1.00
H13      0.69240    0.73457    0.47250   1.00
H14      0.80760    0.76543    0.47250   1.00
C3a      0.71626    0.74096    0.41780   1.00
C3a      0.78374    0.75904    0.41780   1.00
H1       0.69280    0.73467    0.40380   1.00
H1       0.80720    0.76533    0.40380   1.00
C2       0.75000    0.75000    0.39720   1.00
C2       0.25000    0.25000    0.89720   1.00
C3a      0.28374    0.24096    0.91780   1.00
C3a      0.21626    0.25904    0.91780   1.00
H1       0.30720    0.23467    0.90380   1.00
H1       0.19280    0.26533    0.90380   1.00
C3a      0.28408    0.24087    0.95870   1.00
C3a      0.21592    0.25913    0.95870   1.00
H11      0.30760    0.23457    0.97250   1.00
H12      0.19240    0.26543    0.97250   1.00
C4       0.25000    0.25000    0.97940   1.00
C4       0.25000    0.25000    0.02060   1.00
C3a      0.21592    0.25913    0.04130   1.00
C3a      0.28408    0.24087    0.04130   1.00
H13      0.19240    0.26543    0.02750   1.00
H14      0.30760    0.23457    0.02750   1.00
C3a      0.21626    0.25904    0.08220   1.00
C3a      0.28374    0.24096    0.08220   1.00
H1       0.19280    0.26533    0.09620   1.00
H1       0.30720    0.23467    0.09620   1.00
C2       0.25000    0.25000    0.10280   1.00
C2       0.25000    0.39720    0.75000   1.00
C3a      0.24096    0.41780    0.78374   1.00
C3a      0.25904    0.41780    0.71626   1.00
H1       0.23467    0.40380    0.80720   1.00
H1       0.26533    0.40380    0.69280   1.00
C3a      0.24087    0.45870    0.78408   1.00
C3a      0.25913    0.45870    0.71592   1.00
H11      0.23457    0.47250    0.80760   1.00
H12      0.26543    0.47250    0.69240   1.00
C4       0.25000    0.47940    0.75000   1.00
C4       0.25000    0.52060    0.75000   1.00
C3a      0.25913    0.54130    0.71592   1.00
C3a      0.24087    0.54130    0.78408   1.00
H13      0.26543    0.52750    0.69240   1.00
H14      0.23457    0.52750    0.80760   1.00
C3a      0.25904    0.58220    0.71626   1.00
C3a      0.24096    0.58220    0.78374   1.00
H1       0.26533    0.59620    0.69280   1.00
H1       0.23467    0.59620    0.80720   1.00
C2       0.25000    0.60280    0.75000   1.00
C2       0.10280    0.25000    0.75000   1.00
C3a      0.08220    0.28374    0.75904   1.00
C3a      0.08220    0.21626    0.74096   1.00
H1       0.09620    0.30720    0.76533   1.00
H1       0.09620    0.19280    0.73467   1.00
C3a      0.04130    0.28408    0.75913   1.00
C3a      0.04130    0.21592    0.74087   1.00
H11      0.02750    0.30760    0.76543   1.00
H12      0.02750    0.19240    0.73457   1.00
C4       0.02060    0.25000    0.75000   1.00
C4       0.97940    0.25000    0.75000   1.00
C3a      0.95870    0.21592    0.74087   1.00
C3a      0.95870    0.28408    0.75913   1.00
H13      0.97250    0.19240    0.73457   1.00
H14      0.97250    0.30760    0.76543   1.00
C3a      0.91780    0.21626    0.74096   1.00
C3a      0.91780    0.28374    0.75904   1.00
H1       0.90380    0.19280    0.73467   1.00
H1       0.90380    0.30720    0.76533   1.00
C2       0.89720    0.25000    0.75000   1.00
C2       0.39720    0.25000    0.75000   1.00
C3a      0.41780    0.28374    0.74096   1.00
C3a      0.41780    0.21626    0.75904   1.00
H1       0.40380    0.30720    0.73467   1.00
H1       0.40380    0.19280    0.76533   1.00
C3a      0.45870    0.28408    0.74087   1.00
C3a      0.45870    0.21592    0.75913   1.00
H11      0.47250    0.30760    0.73457   1.00
H12      0.47250    0.19240    0.76543   1.00
C4       0.47940    0.25000    0.75000   1.00
C4       0.52060    0.25000    0.75000   1.00
C3a      0.54130    0.21592    0.75913   1.00
C3a      0.54130    0.28408    0.74087   1.00
H13      0.52750    0.19240    0.76543   1.00
H14      0.52750    0.30760    0.73457   1.00
C3a      0.58220    0.21626    0.75904   1.00
C3a      0.58220    0.28374    0.74096   1.00
H1       0.59620    0.19280    0.76533   1.00
H1       0.59620    0.30720    0.73467   1.00
C2       0.60280    0.25000    0.75000   1.00
C2       0.25000    0.10280    0.75000   1.00
C3a      0.25904    0.08220    0.78374   1.00
C3a      0.24096    0.08220    0.71626   1.00
H1       0.26533    0.09620    0.80720   1.00
H1       0.23467    0.09620    0.69280   1.00
C3a      0.25913    0.04130    0.78408   1.00
C3a      0.24087    0.04130    0.71592   1.00
H11      0.26543    0.02750    0.80760   1.00
H12      0.23457    0.02750    0.69240   1.00
C4       0.25000    0.02060    0.75000   1.00
C4       0.25000    0.97940    0.75000   1.00
C3a      0.24087    0.95870    0.71592   1.00
C3a      0.25913    0.95870    0.78408   1.00
H13      0.23457    0.97250    0.69240   1.00
H14      0.26543    0.97250    0.80760   1.00
C3a      0.24096    0.91780    0.71626   1.00
C3a      0.25904    0.91780    0.78374   1.00
H1       0.23467    0.90380    0.69280   1.00
H1       0.26533    0.90380    0.80720   1.00
C2       0.25000    0.89720    0.75000   1.00
C2       0.25000    0.25000    0.60280   1.00
C3a      0.28374    0.25904    0.58220   1.00
C3a      0.21626    0.24096    0.58220   1.00
H1       0.30720    0.26533    0.59620   1.00
H1       0.19280    0.23467    0.59620   1.00
C3a      0.28408    0.25913    0.54130   1.00
C3a      0.21592    0.24087    0.54130   1.00
H11      0.30760    0.26543    0.52750   1.00
H12      0.19240    0.23457    0.52750   1.00
C4       0.25000    0.25000    0.52060   1.00
C4       0.25000    0.25000    0.47940   1.00
C3a      0.21592    0.24087    0.45870   1.00
C3a      0.28408    0.25913    0.45870   1.00
H13      0.19240    0.23457    0.47250   1.00
H14      0.30760    0.26543    0.47250   1.00
C3a      0.21626    0.24096    0.41780   1.00
C3a      0.28374    0.25904    0.41780   1.00
H1       0.19280    0.23467    0.40380   1.00
H1       0.30720    0.26533    0.40380   1.00
C2       0.25000    0.25000    0.39720   1.00
C2       0.25000    0.75000    0.39720   1.00
C3a      0.28374    0.74096    0.41780   1.00
C3a      0.21626    0.75904    0.41780   1.00
H1       0.30720    0.73467    0.40380   1.00
H1       0.19280    0.76533    0.40380   1.00
C3a      0.28408    0.74087    0.45870   1.00
C3a      0.21592    0.75913    0.45870   1.00
H11      0.30760    0.73457    0.47250   1.00
H12      0.19240    0.76543    0.47250   1.00
C4       0.25000    0.75000    0.47940   1.00
C4       0.25000    0.75000    0.52060   1.00
C3a      0.21592    0.75913    0.54130   1.00
C3a      0.28408    0.74087    0.54130   1.00
H13      0.19240    0.76543    0.52750   1.00
H14      0.30760    0.73457    0.52750   1.00
C3a      0.21626    0.75904    0.58220   1.00
C3a      0.28374    0.74096    0.58220   1.00
H1       0.19280    0.76533    0.59620   1.00
H1       0.30720    0.73467    0.59620   1.00
C2       0.25000    0.75000    0.60280   1.00
C2       0.25000    0.89720    0.25000   1.00
C3a      0.24096    0.91780    0.28374   1.00
C3a      0.25904    0.91780    0.21626   1.00
H1       0.23467    0.90380    0.30720   1.00
H1       0.26533    0.90380    0.19280   1.00
C3a      0.24087    0.95870    0.28408   1.00
C3a      0.25913    0.95870    0.21592   1.00
H11      0.23457    0.97250    0.30760   1.00
H12      0.26543    0.97250    0.19240   1.00
C4       0.25000    0.97940    0.25000   1.00
C4       0.25000    0.02060    0.25000   1.00
C3a      0.25913    0.04130    0.21592   1.00
C3a      0.24087    0.04130    0.28408   1.00
H13      0.26543    0.02750    0.19240   1.00
H14      0.23457    0.02750    0.30760   1.00
C3a      0.25904    0.08220    0.21626   1.00
C3a      0.24096    0.08220    0.28374   1.00
H1       0.26533    0.09620    0.19280   1.00
H1       0.23467    0.09620    0.30720   1.00
C2       0.25000    0.10280    0.25000   1.00
C2       0.10280    0.75000    0.25000   1.00
C3a      0.08220    0.78374    0.25904   1.00
C3a      0.08220    0.71626    0.24096   1.00
H1       0.09620    0.80720    0.26533   1.00
H1       0.09620    0.69280    0.23467   1.00
C3a      0.04130    0.78408    0.25913   1.00
C3a      0.04130    0.71592    0.24087   1.00
H11      0.02750    0.80760    0.26543   1.00
H12      0.02750    0.69240    0.23457   1.00
C4       0.02060    0.75000    0.25000   1.00
C4       0.97940    0.75000    0.25000   1.00
C3a      0.95870    0.71592    0.24087   1.00
C3a      0.95870    0.78408    0.25913   1.00
H13      0.97250    0.69240    0.23457   1.00
H14      0.97250    0.80760    0.26543   1.00
C3a      0.91780    0.71626    0.24096   1.00
C3a      0.91780    0.78374    0.25904   1.00
H1       0.90380    0.69280    0.23467   1.00
H1       0.90380    0.80720    0.26533   1.00
C2       0.89720    0.75000    0.25000   1.00
C2       0.39720    0.75000    0.25000   1.00
C3a      0.41780    0.78374    0.24096   1.00
C3a      0.41780    0.71626    0.25904   1.00
H1       0.40380    0.80720    0.23467   1.00
H1       0.40380    0.69280    0.26533   1.00
C3a      0.45870    0.78408    0.24087   1.00
C3a      0.45870    0.71592    0.25913   1.00
H11      0.47250    0.80760    0.23457   1.00
H12      0.47250    0.69240    0.26543   1.00
C4       0.47940    0.75000    0.25000   1.00
C4       0.52060    0.75000    0.25000   1.00
C3a      0.54130    0.71592    0.25913   1.00
C3a      0.54130    0.78408    0.24087   1.00
H13      0.52750    0.69240    0.26543   1.00
H14      0.52750    0.80760    0.23457   1.00
C3a      0.58220    0.71626    0.25904   1.00
C3a      0.58220    0.78374    0.24096   1.00
H1       0.59620    0.69280    0.26533   1.00
H1       0.59620    0.80720    0.23467   1.00
C2       0.60280    0.75000    0.25000   1.00
C2       0.25000    0.60280    0.25000   1.00
C3a      0.25904    0.58220    0.28374   1.00
C3a      0.24096    0.58220    0.21626   1.00
H1       0.26533    0.59620    0.30720   1.00
H1       0.23467    0.59620    0.19280   1.00
C3a      0.25913    0.54130    0.28408   1.00
C3a      0.24087    0.54130    0.21592   1.00
H11      0.26543    0.52750    0.30760   1.00
H12      0.23457    0.52750    0.19240   1.00
C4       0.25000    0.52060    0.25000   1.00
C4       0.25000    0.47940    0.25000   1.00
C3a      0.24087    0.45870    0.21592   1.00
C3a      0.25913    0.45870    0.28408   1.00
H13      0.23457    0.47250    0.19240   1.00
H14      0.26543    0.47250    0.30760   1.00
C3a      0.24096    0.41780    0.21626   1.00
C3a      0.25904    0.41780    0.28374   1.00
H1       0.23467    0.40380    0.19280   1.00
H1       0.26533    0.40380    0.30720   1.00
C2       0.25000    0.39720    0.25000   1.00
C2       0.25000    0.75000    0.10280   1.00
C3a      0.28374    0.75904    0.08220   1.00
C3a      0.21626    0.74096    0.08220   1.00
H1       0.30720    0.76533    0.09620   1.00
H1       0.19280    0.73467    0.09620   1.00
C3a      0.28408    0.75913    0.04130   1.00
C3a      0.21592    0.74087    0.04130   1.00
H11      0.30760    0.76543    0.02750   1.00
H12      0.19240    0.73457    0.02750   1.00
C4       0.25000    0.75000    0.02060   1.00
C4       0.25000    0.75000    0.97940   1.00
C3a      0.21592    0.74087    0.95870   1.00
C3a      0.28408    0.75913    0.95870   1.00
H13      0.19240    0.73457    0.97250   1.00
H14      0.30760    0.76543    0.97250   1.00
C3a      0.21626    0.74096    0.91780   1.00
C3a      0.28374    0.75904    0.91780   1.00
H1       0.19280    0.73467    0.90380   1.00
H1       0.30720    0.76533    0.90380   1.00
C2       0.25000    0.75000    0.89720   1.00
C2       0.75000    0.25000    0.39720   1.00
C3a      0.78374    0.24096    0.41780   1.00
C3a      0.71626    0.25904    0.41780   1.00
H1       0.80720    0.23467    0.40380   1.00
H1       0.69280    0.26533    0.40380   1.00
C3a      0.78408    0.24087    0.45870   1.00
C3a      0.71592    0.25913    0.45870   1.00
H11      0.80760    0.23457    0.47250   1.00
H12      0.69240    0.26543    0.47250   1.00
C4       0.75000    0.25000    0.47940   1.00
C4       0.75000    0.25000    0.52060   1.00
C3a      0.71592    0.25913    0.54130   1.00
C3a      0.78408    0.24087    0.54130   1.00
H13      0.69240    0.26543    0.52750   1.00
H14      0.80760    0.23457    0.52750   1.00
C3a      0.71626    0.25904    0.58220   1.00
C3a      0.78374    0.24096    0.58220   1.00
H1       0.69280    0.26533    0.59620   1.00
H1       0.80720    0.23467    0.59620   1.00
C2       0.75000    0.25000    0.60280   1.00
C2       0.75000    0.39720    0.25000   1.00
C3a      0.74096    0.41780    0.28374   1.00
C3a      0.75904    0.41780    0.21626   1.00
H1       0.73467    0.40380    0.30720   1.00
H1       0.76533    0.40380    0.19280   1.00
C3a      0.74087    0.45870    0.28408   1.00
C3a      0.75913    0.45870    0.21592   1.00
H11      0.73457    0.47250    0.30760   1.00
H12      0.76543    0.47250    0.19240   1.00
C4       0.75000    0.47940    0.25000   1.00
C4       0.75000    0.52060    0.25000   1.00
C3a      0.75913    0.54130    0.21592   1.00
C3a      0.74087    0.54130    0.28408   1.00
H13      0.76543    0.52750    0.19240   1.00
H14      0.73457    0.52750    0.30760   1.00
C3a      0.75904    0.58220    0.21626   1.00
C3a      0.74096    0.58220    0.28374   1.00
H1       0.76533    0.59620    0.19280   1.00
H1       0.73467    0.59620    0.30720   1.00
C2       0.75000    0.60280    0.25000   1.00
C2       0.60280    0.25000    0.25000   1.00
C3a      0.58220    0.28374    0.25904   1.00
C3a      0.58220    0.21626    0.24096   1.00
H1       0.59620    0.30720    0.26533   1.00
H1       0.59620    0.19280    0.23467   1.00
C3a      0.54130    0.28408    0.25913   1.00
C3a      0.54130    0.21592    0.24087   1.00
H11      0.52750    0.30760    0.26543   1.00
H12      0.52750    0.19240    0.23457   1.00
C4       0.52060    0.25000    0.25000   1.00
C4       0.47940    0.25000    0.25000   1.00
C3a      0.45870    0.21592    0.24087   1.00
C3a      0.45870    0.28408    0.25913   1.00
H13      0.47250    0.19240    0.23457   1.00
H14      0.47250    0.30760    0.26543   1.00
C3a      0.41780    0.21626    0.24096   1.00
C3a      0.41780    0.28374    0.25904   1.00
H1       0.40380    0.19280    0.23467   1.00
H1       0.40380    0.30720    0.26533   1.00
C2       0.39720    0.25000    0.25000   1.00
C2       0.89720    0.25000    0.25000   1.00
C3a      0.91780    0.28374    0.24096   1.00
C3a      0.91780    0.21626    0.25904   1.00
H1       0.90380    0.30720    0.23467   1.00
H1       0.90380    0.19280    0.26533   1.00
C3a      0.95870    0.28408    0.24087   1.00
C3a      0.95870    0.21592    0.25913   1.00
H11      0.97250    0.30760    0.23457   1.00
H12      0.97250    0.19240    0.26543   1.00
C4       0.97940    0.25000    0.25000   1.00
C4       0.02060    0.25000    0.25000   1.00
C3a      0.04130    0.21592    0.25913   1.00
C3a      0.04130    0.28408    0.24087   1.00
H13      0.02750    0.19240    0.26543   1.00
H14      0.02750    0.30760    0.23457   1.00
C3a      0.08220    0.21626    0.25904   1.00
C3a      0.08220    0.28374    0.24096   1.00
H1       0.09620    0.19280    0.26533   1.00
H1       0.09620    0.30720    0.23467   1.00
C2       0.10280    0.25000    0.25000   1.00
C2       0.75000    0.10280    0.25000   1.00
C3a      0.75904    0.08220    0.28374   1.00
C3a      0.74096    0.08220    0.21626   1.00
H1       0.76533    0.09620    0.30720   1.00
H1       0.73467    0.09620    0.19280   1.00
C3a      0.75913    0.04130    0.28408   1.00
C3a      0.74087    0.04130    0.21592   1.00
H11      0.76543    0.02750    0.30760   1.00
H12      0.73457    0.02750    0.19240   1.00
C4       0.75000    0.02060    0.25000   1.00
C4       0.75000    0.97940    0.25000   1.00
C3a      0.74087    0.95870    0.21592   1.00
C3a      0.75913    0.95870    0.28408   1.00
H13      0.73457    0.97250    0.19240   1.00
H14      0.76543    0.97250    0.30760   1.00
C3a      0.74096    0.91780    0.21626   1.00
C3a      0.75904    0.91780    0.28374   1.00
H1       0.73467    0.90380    0.19280   1.00
H1       0.76533    0.90380    0.30720   1.00
C2       0.75000    0.89720    0.25000   1.00
C2       0.75000    0.25000    0.10280   1.00
C3a      0.78374    0.25904    0.08220   1.00
C3a      0.71626    0.24096    0.08220   1.00
H1       0.80720    0.26533    0.09620   1.00
H1       0.69280    0.23467    0.09620   1.00
C3a      0.78408    0.25913    0.04130   1.00
C3a      0.71592    0.24087    0.04130   1.00
H11      0.80760    0.26543    0.02750   1.00
H12      0.69240    0.23457    0.02750   1.00
C4       0.75000    0.25000    0.02060   1.00
C4       0.75000    0.25000    0.97940   1.00
C3a      0.71592    0.24087    0.95870   1.00
C3a      0.78408    0.25913    0.95870   1.00
H13      0.69240    0.23457    0.97250   1.00
H14      0.80760    0.26543    0.97250   1.00
C3a      0.71626    0.24096    0.91780   1.00
C3a      0.78374    0.25904    0.91780   1.00
H1       0.69280    0.23467    0.90380   1.00
H1       0.80720    0.26533    0.90380   1.00
C2       0.75000    0.25000    0.89720   1.00
C2       0.91500    0.91500    1.06220   1.00
C3a      0.94874    0.90596    1.08280   1.00
C3a      0.88126    0.92404    1.08280   1.00
H1       0.97220    0.89967    1.06880   1.00
H1       0.85780    0.93033    1.06880   1.00
C3a      0.94908    0.90587    1.12370   1.00
C3a      0.88092    0.92413    1.12370   1.00
H11      0.97260    0.89957    1.13750   1.00
H12      0.85740    0.93043    1.13750   1.00
C4       0.91500    0.91500    1.14440   1.00
C4       0.91500    0.91500    0.18560   1.00
C3a      0.88092    0.92413    0.20630   1.00
C3a      0.94908    0.90587    0.20630   1.00
H13      0.85740    0.93043    0.19250   1.00
H14      0.97260    0.89957    0.19250   1.00
C3a      0.88126    0.92404    0.24720   1.00
C3a      0.94874    0.90596    0.24720   1.00
H1       0.85780    0.93033    0.26120   1.00
H1       0.97220    0.89967    0.26120   1.00
C2       0.91500    0.91500    0.26780   1.00
C2       0.91500    1.06220    0.91500   1.00
C3a      0.90596    1.08280    0.94874   1.00
C3a      0.92404    1.08280    0.88126   1.00
H1       0.89967    1.06880    0.97220   1.00
H1       0.93033    1.06880    0.85780   1.00
C3a      0.90587    1.12370    0.94908   1.00
C3a      0.92413    1.12370    0.88092   1.00
H11      0.89957    1.13750    0.97260   1.00
H12      0.93043    1.13750    0.85740   1.00
C4       0.91500    1.14440    0.91500   1.00
C4       0.91500    0.18560    0.91500   1.00
C3a      0.92413    0.20630    0.88092   1.00
C3a      0.90587    0.20630    0.94908   1.00
H13      0.93043    0.19250    0.85740   1.00
H14      0.89957    0.19250    0.97260   1.00
C3a      0.92404    0.24720    0.88126   1.00
C3a      0.90596    0.24720    0.94874   1.00
H1       0.93033    0.26120    0.85780   1.00
H1       0.89967    0.26120    0.97220   1.00
C2       0.91500    0.26780    0.91500   1.00
C2       0.76780    0.91500    0.91500   1.00
C3a      0.74720    0.94874    0.92404   1.00
C3a      0.74720    0.88126    0.90596   1.00
H1       0.76120    0.97220    0.93033   1.00
H1       0.76120    0.85780    0.89967   1.00
C3a      0.70630    0.94908    0.92413   1.00
C3a      0.70630    0.88092    0.90587   1.00
H11      0.69250    0.97260    0.93043   1.00
H12      0.69250    0.85740    0.89957   1.00
C4       0.68560    0.91500    0.91500   1.00
C4       0.64440    0.91500    0.91500   1.00
C3a      0.62370    0.88092    0.90587   1.00
C3a      0.62370    0.94908    0.92413   1.00
H13      0.63750    0.85740    0.89957   1.00
H14      0.63750    0.97260    0.93043   1.00
C3a      0.58280    0.88126    0.90596   1.00
C3a      0.58280    0.94874    0.92404   1.00
H1       0.56880    0.85780    0.89967   1.00
H1       0.56880    0.97220    0.93033   1.00
C2       0.56220    0.91500    0.91500   1.00
C2       1.06220    0.91500    0.91500   1.00
C3a      1.08280    0.94874    0.90596   1.00
C3a      1.08280    0.88126    0.92404   1.00
H1       1.06880    0.97220    0.89967   1.00
H1       1.06880    0.85780    0.93033   1.00
C3a      1.12370    0.94908    0.90587   1.00
C3a      1.12370    0.88092    0.92413   1.00
H11      1.13750    0.97260    0.89957   1.00
H12      1.13750    0.85740    0.93043   1.00
C4       1.14440    0.91500    0.91500   1.00
C4       0.18560    0.91500    0.91500   1.00
C3a      0.20630    0.88092    0.92413   1.00
C3a      0.20630    0.94908    0.90587   1.00
H13      0.19250    0.85740    0.93043   1.00
H14      0.19250    0.97260    0.89957   1.00
C3a      0.24720    0.88126    0.92404   1.00
C3a      0.24720    0.94874    0.90596   1.00
H1       0.26120    0.85780    0.93033   1.00
H1       0.26120    0.97220    0.89967   1.00
C2       0.26780    0.91500    0.91500   1.00
C2       0.91500    0.76780    0.91500   1.00
C3a      0.92404    0.74720    0.94874   1.00
C3a      0.90596    0.74720    0.88126   1.00
H1       0.93033    0.76120    0.97220   1.00
H1       0.89967    0.76120    0.85780   1.00
C3a      0.92413    0.70630    0.94908   1.00
C3a      0.90587    0.70630    0.88092   1.00
H11      0.93043    0.69250    0.97260   1.00
H12      0.89957    0.69250    0.85740   1.00
C4       0.91500    0.68560    0.91500   1.00
C4       0.91500    0.64440    0.91500   1.00
C3a      0.90587    0.62370    0.88092   1.00
C3a      0.92413    0.62370    0.94908   1.00
H13      0.89957    0.63750    0.85740   1.00
H14      0.93043    0.63750    0.97260   1.00
C3a      0.90596    0.58280    0.88126   1.00
C3a      0.92404    0.58280    0.94874   1.00
H1       0.89967    0.56880    0.85780   1.00
H1       0.93033    0.56880    0.97220   1.00
C2       0.91500    0.56220    0.91500   1.00
C2       0.91500    0.91500    0.76780   1.00
C3a      0.94874    0.92404    0.74720   1.00
C3a      0.88126    0.90596    0.74720   1.00
H1       0.97220    0.93033    0.76120   1.00
H1       0.85780    0.89967    0.76120   1.00
C3a      0.94908    0.92413    0.70630   1.00
C3a      0.88092    0.90587    0.70630   1.00
H11      0.97260    0.93043    0.69250   1.00
H12      0.85740    0.89957    0.69250   1.00
C4       0.91500    0.91500    0.68560   1.00
C4       0.91500    0.91500    0.64440   1.00
C3a      0.88092    0.90587    0.62370   1.00
C3a      0.94908    0.92413    0.62370   1.00
H13      0.85740    0.89957    0.63750   1.00
H14      0.97260    0.93043    0.63750   1.00
C3a      0.88126    0.90596    0.58280   1.00
C3a      0.94874    0.92404    0.58280   1.00
H1       0.85780    0.89967    0.56880   1.00
H1       0.97220    0.93033    0.56880   1.00
C2       0.91500    0.91500    0.56220   1.00
C2       0.41500    0.41500    1.06220   1.00
C3a      0.44874    0.40596    1.08280   1.00
C3a      0.38126    0.42404    1.08280   1.00
H1       0.47220    0.39967    1.06880   1.00
H1       0.35780    0.43033    1.06880   1.00
C3a      0.44908    0.40587    1.12370   1.00
C3a      0.38092    0.42413    1.12370   1.00
H11      0.47260    0.39957    1.13750   1.00
H12      0.35740    0.43043    1.13750   1.00
C4       0.41500    0.41500    1.14440   1.00
C4       0.41500    0.41500    0.18560   1.00
C3a      0.38092    0.42413    0.20630   1.00
C3a      0.44908    0.40587    0.20630   1.00
H13      0.35740    0.43043    0.19250   1.00
H14      0.47260    0.39957    0.19250   1.00
C3a      0.38126    0.42404    0.24720   1.00
C3a      0.44874    0.40596    0.24720   1.00
H1       0.35780    0.43033    0.26120   1.00
H1       0.47220    0.39967    0.26120   1.00
C2       0.41500    0.41500    0.26780   1.00
C2       0.41500    0.56220    0.91500   1.00
C3a      0.40596    0.58280    0.94874   1.00
C3a      0.42404    0.58280    0.88126   1.00
H1       0.39967    0.56880    0.97220   1.00
H1       0.43033    0.56880    0.85780   1.00
C3a      0.40587    0.62370    0.94908   1.00
C3a      0.42413    0.62370    0.88092   1.00
H11      0.39957    0.63750    0.97260   1.00
H12      0.43043    0.63750    0.85740   1.00
C4       0.41500    0.64440    0.91500   1.00
C4       0.41500    0.68560    0.91500   1.00
C3a      0.42413    0.70630    0.88092   1.00
C3a      0.40587    0.70630    0.94908   1.00
H13      0.43043    0.69250    0.85740   1.00
H14      0.39957    0.69250    0.97260   1.00
C3a      0.42404    0.74720    0.88126   1.00
C3a      0.40596    0.74720    0.94874   1.00
H1       0.43033    0.76120    0.85780   1.00
H1       0.39967    0.76120    0.97220   1.00
C2       0.41500    0.76780    0.91500   1.00
C2       0.26780    0.41500    0.91500   1.00
C3a      0.24720    0.44874    0.92404   1.00
C3a      0.24720    0.38126    0.90596   1.00
H1       0.26120    0.47220    0.93033   1.00
H1       0.26120    0.35780    0.89967   1.00
C3a      0.20630    0.44908    0.92413   1.00
C3a      0.20630    0.38092    0.90587   1.00
H11      0.19250    0.47260    0.93043   1.00
H12      0.19250    0.35740    0.89957   1.00
C4       0.18560    0.41500    0.91500   1.00
C4       1.14440    0.41500    0.91500   1.00
C3a      1.12370    0.38092    0.90587   1.00
C3a      1.12370    0.44908    0.92413   1.00
H13      1.13750    0.35740    0.89957   1.00
H14      1.13750    0.47260    0.93043   1.00
C3a      1.08280    0.38126    0.90596   1.00
C3a      1.08280    0.44874    0.92404   1.00
H1       1.06880    0.35780    0.89967   1.00
H1       1.06880    0.47220    0.93033   1.00
C2       1.06220    0.41500    0.91500   1.00
C2       0.56220    0.41500    0.91500   1.00
C3a      0.58280    0.44874    0.90596   1.00
C3a      0.58280    0.38126    0.92404   1.00
H1       0.56880    0.47220    0.89967   1.00
H1       0.56880    0.35780    0.93033   1.00
C3a      0.62370    0.44908    0.90587   1.00
C3a      0.62370    0.38092    0.92413   1.00
H11      0.63750    0.47260    0.89957   1.00
H12      0.63750    0.35740    0.93043   1.00
C4       0.64440    0.41500    0.91500   1.00
C4       0.68560    0.41500    0.91500   1.00
C3a      0.70630    0.38092    0.92413   1.00
C3a      0.70630    0.44908    0.90587   1.00
H13      0.69250    0.35740    0.93043   1.00
H14      0.69250    0.47260    0.89957   1.00
C3a      0.74720    0.38126    0.92404   1.00
C3a      0.74720    0.44874    0.90596   1.00
H1       0.76120    0.35780    0.93033   1.00
H1       0.76120    0.47220    0.89967   1.00
C2       0.76780    0.41500    0.91500   1.00
C2       0.41500    0.26780    0.91500   1.00
C3a      0.42404    0.24720    0.94874   1.00
C3a      0.40596    0.24720    0.88126   1.00
H1       0.43033    0.26120    0.97220   1.00
H1       0.39967    0.26120    0.85780   1.00
C3a      0.42413    0.20630    0.94908   1.00
C3a      0.40587    0.20630    0.88092   1.00
H11      0.43043    0.19250    0.97260   1.00
H12      0.39957    0.19250    0.85740   1.00
C4       0.41500    0.18560    0.91500   1.00
C4       0.41500    1.14440    0.91500   1.00
C3a      0.40587    1.12370    0.88092   1.00
C3a      0.42413    1.12370    0.94908   1.00
H13      0.39957    1.13750    0.85740   1.00
H14      0.43043    1.13750    0.97260   1.00
C3a      0.40596    1.08280    0.88126   1.00
C3a      0.42404    1.08280    0.94874   1.00
H1       0.39967    1.06880    0.85780   1.00
H1       0.43033    1.06880    0.97220   1.00
C2       0.41500    1.06220    0.91500   1.00
C2       0.41500    0.41500    0.76780   1.00
C3a      0.44874    0.42404    0.74720   1.00
C3a      0.38126    0.40596    0.74720   1.00
H1       0.47220    0.43033    0.76120   1.00
H1       0.35780    0.39967    0.76120   1.00
C3a      0.44908    0.42413    0.70630   1.00
C3a      0.38092    0.40587    0.70630   1.00
H11      0.47260    0.43043    0.69250   1.00
H12      0.35740    0.39957    0.69250   1.00
C4       0.41500    0.41500    0.68560   1.00
C4       0.41500    0.41500    0.64440   1.00
C3a      0.38092    0.40587    0.62370   1.00
C3a      0.44908    0.42413    0.62370   1.00
H13      0.35740    0.39957    0.63750   1.00
H14      0.47260    0.43043    0.63750   1.00
C3a      0.38126    0.40596    0.58280   1.00
C3a      0.44874    0.42404    0.58280   1.00
H1       0.35780    0.39967    0.56880   1.00
H1       0.47220    0.43033    0.56880   1.00
C2       0.41500    0.41500    0.56220   1.00
C2       0.41500    0.91500    0.56220   1.00
C3a      0.44874    0.90596    0.58280   1.00
C3a      0.38126    0.92404    0.58280   1.00
H1       0.47220    0.89967    0.56880   1.00
H1       0.35780    0.93033    0.56880   1.00
C3a      0.44908    0.90587    0.62370   1.00
C3a      0.38092    0.92413    0.62370   1.00
H11      0.47260    0.89957    0.63750   1.00
H12      0.35740    0.93043    0.63750   1.00
C4       0.41500    0.91500    0.64440   1.00
C4       0.41500    0.91500    0.68560   1.00
C3a      0.38092    0.92413    0.70630   1.00
C3a      0.44908    0.90587    0.70630   1.00
H13      0.35740    0.93043    0.69250   1.00
H14      0.47260    0.89957    0.69250   1.00
C3a      0.38126    0.92404    0.74720   1.00
C3a      0.44874    0.90596    0.74720   1.00
H1       0.35780    0.93033    0.76120   1.00
H1       0.47220    0.89967    0.76120   1.00
C2       0.41500    0.91500    0.76780   1.00
C2       0.41500    1.06220    0.41500   1.00
C3a      0.40596    1.08280    0.44874   1.00
C3a      0.42404    1.08280    0.38126   1.00
H1       0.39967    1.06880    0.47220   1.00
H1       0.43033    1.06880    0.35780   1.00
C3a      0.40587    1.12370    0.44908   1.00
C3a      0.42413    1.12370    0.38092   1.00
H11      0.39957    1.13750    0.47260   1.00
H12      0.43043    1.13750    0.35740   1.00
C4       0.41500    1.14440    0.41500   1.00
C4       0.41500    0.18560    0.41500   1.00
C3a      0.42413    0.20630    0.38092   1.00
C3a      0.40587    0.20630    0.44908   1.00
H13      0.43043    0.19250    0.35740   1.00
H14      0.39957    0.19250    0.47260   1.00
C3a      0.42404    0.24720    0.38126   1.00
C3a      0.40596    0.24720    0.44874   1.00
H1       0.43033    0.26120    0.35780   1.00
H1       0.39967    0.26120    0.47220   1.00
C2       0.41500    0.26780    0.41500   1.00
C2       0.26780    0.91500    0.41500   1.00
C3a      0.24720    0.94874    0.42404   1.00
C3a      0.24720    0.88126    0.40596   1.00
H1       0.26120    0.97220    0.43033   1.00
H1       0.26120    0.85780    0.39967   1.00
C3a      0.20630    0.94908    0.42413   1.00
C3a      0.20630    0.88092    0.40587   1.00
H11      0.19250    0.97260    0.43043   1.00
H12      0.19250    0.85740    0.39957   1.00
C4       0.18560    0.91500    0.41500   1.00
C4       1.14440    0.91500    0.41500   1.00
C3a      1.12370    0.88092    0.40587   1.00
C3a      1.12370    0.94908    0.42413   1.00
H13      1.13750    0.85740    0.39957   1.00
H14      1.13750    0.97260    0.43043   1.00
C3a      1.08280    0.88126    0.40596   1.00
C3a      1.08280    0.94874    0.42404   1.00
H1       1.06880    0.85780    0.39967   1.00
H1       1.06880    0.97220    0.43033   1.00
C2       1.06220    0.91500    0.41500   1.00
C2       0.56220    0.91500    0.41500   1.00
C3a      0.58280    0.94874    0.40596   1.00
C3a      0.58280    0.88126    0.42404   1.00
H1       0.56880    0.97220    0.39967   1.00
H1       0.56880    0.85780    0.43033   1.00
C3a      0.62370    0.94908    0.40587   1.00
C3a      0.62370    0.88092    0.42413   1.00
H11      0.63750    0.97260    0.39957   1.00
H12      0.63750    0.85740    0.43043   1.00
C4       0.64440    0.91500    0.41500   1.00
C4       0.68560    0.91500    0.41500   1.00
C3a      0.70630    0.88092    0.42413   1.00
C3a      0.70630    0.94908    0.40587   1.00
H13      0.69250    0.85740    0.43043   1.00
H14      0.69250    0.97260    0.39957   1.00
C3a      0.74720    0.88126    0.42404   1.00
C3a      0.74720    0.94874    0.40596   1.00
H1       0.76120    0.85780    0.43033   1.00
H1       0.76120    0.97220    0.39967   1.00
C2       0.76780    0.91500    0.41500   1.00
C2       0.41500    0.76780    0.41500   1.00
C3a      0.42404    0.74720    0.44874   1.00
C3a      0.40596    0.74720    0.38126   1.00
H1       0.43033    0.76120    0.47220   1.00
H1       0.39967    0.76120    0.35780   1.00
C3a      0.42413    0.70630    0.44908   1.00
C3a      0.40587    0.70630    0.38092   1.00
H11      0.43043    0.69250    0.47260   1.00
H12      0.39957    0.69250    0.35740   1.00
C4       0.41500    0.68560    0.41500   1.00
C4       0.41500    0.64440    0.41500   1.00
C3a      0.40587    0.62370    0.38092   1.00
C3a      0.42413    0.62370    0.44908   1.00
H13      0.39957    0.63750    0.35740   1.00
H14      0.43043    0.63750    0.47260   1.00
C3a      0.40596    0.58280    0.38126   1.00
C3a      0.42404    0.58280    0.44874   1.00
H1       0.39967    0.56880    0.35780   1.00
H1       0.43033    0.56880    0.47220   1.00
C2       0.41500    0.56220    0.41500   1.00
C2       0.41500    0.91500    0.26780   1.00
C3a      0.44874    0.92404    0.24720   1.00
C3a      0.38126    0.90596    0.24720   1.00
H1       0.47220    0.93033    0.26120   1.00
H1       0.35780    0.89967    0.26120   1.00
C3a      0.44908    0.92413    0.20630   1.00
C3a      0.38092    0.90587    0.20630   1.00
H11      0.47260    0.93043    0.19250   1.00
H12      0.35740    0.89957    0.19250   1.00
C4       0.41500    0.91500    0.18560   1.00
C4       0.41500    0.91500    1.14440   1.00
C3a      0.38092    0.90587    1.12370   1.00
C3a      0.44908    0.92413    1.12370   1.00
H13      0.35740    0.89957    1.13750   1.00
H14      0.47260    0.93043    1.13750   1.00
C3a      0.38126    0.90596    1.08280   1.00
C3a      0.44874    0.92404    1.08280   1.00
H1       0.35780    0.89967    1.06880   1.00
H1       0.47220    0.93033    1.06880   1.00
C2       0.41500    0.91500    1.06220   1.00
C2       0.91500    0.41500    0.56220   1.00
C3a      0.94874    0.40596    0.58280   1.00
C3a      0.88126    0.42404    0.58280   1.00
H1       0.97220    0.39967    0.56880   1.00
H1       0.85780    0.43033    0.56880   1.00
C3a      0.94908    0.40587    0.62370   1.00
C3a      0.88092    0.42413    0.62370   1.00
H11      0.97260    0.39957    0.63750   1.00
H12      0.85740    0.43043    0.63750   1.00
C4       0.91500    0.41500    0.64440   1.00
C4       0.91500    0.41500    0.68560   1.00
C3a      0.88092    0.42413    0.70630   1.00
C3a      0.94908    0.40587    0.70630   1.00
H13      0.85740    0.43043    0.69250   1.00
H14      0.97260    0.39957    0.69250   1.00
C3a      0.88126    0.42404    0.74720   1.00
C3a      0.94874    0.40596    0.74720   1.00
H1       0.85780    0.43033    0.76120   1.00
H1       0.97220    0.39967    0.76120   1.00
C2       0.91500    0.41500    0.76780   1.00
C2       0.91500    0.56220    0.41500   1.00
C3a      0.90596    0.58280    0.44874   1.00
C3a      0.92404    0.58280    0.38126   1.00
H1       0.89967    0.56880    0.47220   1.00
H1       0.93033    0.56880    0.35780   1.00
C3a      0.90587    0.62370    0.44908   1.00
C3a      0.92413    0.62370    0.38092   1.00
H11      0.89957    0.63750    0.47260   1.00
H12      0.93043    0.63750    0.35740   1.00
C4       0.91500    0.64440    0.41500   1.00
C4       0.91500    0.68560    0.41500   1.00
C3a      0.92413    0.70630    0.38092   1.00
C3a      0.90587    0.70630    0.44908   1.00
H13      0.93043    0.69250    0.35740   1.00
H14      0.89957    0.69250    0.47260   1.00
C3a      0.92404    0.74720    0.38126   1.00
C3a      0.90596    0.74720    0.44874   1.00
H1       0.93033    0.76120    0.35780   1.00
H1       0.89967    0.76120    0.47220   1.00
C2       0.91500    0.76780    0.41500   1.00
C2       0.76780    0.41500    0.41500   1.00
C3a      0.74720    0.44874    0.42404   1.00
C3a      0.74720    0.38126    0.40596   1.00
H1       0.76120    0.47220    0.43033   1.00
H1       0.76120    0.35780    0.39967   1.00
C3a      0.70630    0.44908    0.42413   1.00
C3a      0.70630    0.38092    0.40587   1.00
H11      0.69250    0.47260    0.43043   1.00
H12      0.69250    0.35740    0.39957   1.00
C4       0.68560    0.41500    0.41500   1.00
C4       0.64440    0.41500    0.41500   1.00
C3a      0.62370    0.38092    0.40587   1.00
C3a      0.62370    0.44908    0.42413   1.00
H13      0.63750    0.35740    0.39957   1.00
H14      0.63750    0.47260    0.43043   1.00
C3a      0.58280    0.38126    0.40596   1.00
C3a      0.58280    0.44874    0.42404   1.00
H1       0.56880    0.35780    0.39967   1.00
H1       0.56880    0.47220    0.43033   1.00
C2       0.56220    0.41500    0.41500   1.00
C2       1.06220    0.41500    0.41500   1.00
C3a      1.08280    0.44874    0.40596   1.00
C3a      1.08280    0.38126    0.42404   1.00
H1       1.06880    0.47220    0.39967   1.00
H1       1.06880    0.35780    0.43033   1.00
C3a      1.12370    0.44908    0.40587   1.00
C3a      1.12370    0.38092    0.42413   1.00
H11      1.13750    0.47260    0.39957   1.00
H12      1.13750    0.35740    0.43043   1.00
C4       1.14440    0.41500    0.41500   1.00
C4       0.18560    0.41500    0.41500   1.00
C3a      0.20630    0.38092    0.42413   1.00
C3a      0.20630    0.44908    0.40587   1.00
H13      0.19250    0.35740    0.43043   1.00
H14      0.19250    0.47260    0.39957   1.00
C3a      0.24720    0.38126    0.42404   1.00
C3a      0.24720    0.44874    0.40596   1.00
H1       0.26120    0.35780    0.43033   1.00
H1       0.26120    0.47220    0.39967   1.00
C2       0.26780    0.41500    0.41500   1.00
C2       0.91500    0.26780    0.41500   1.00
C3a      0.92404    0.24720    0.44874   1.00
C3a      0.90596    0.24720    0.38126   1.00
H1       0.93033    0.26120    0.47220   1.00
H1       0.89967    0.26120    0.35780   1.00
C3a      0.92413    0.20630    0.44908   1.00
C3a      0.90587    0.20630    0.38092   1.00
H11      0.93043    0.19250    0.47260   1.00
H12      0.89957    0.19250    0.35740   1.00
C4       0.91500    0.18560    0.41500   1.00
C4       0.91500    1.14440    0.41500   1.00
C3a      0.90587    1.12370    0.38092   1.00
C3a      0.92413    1.12370    0.44908   1.00
H13      0.89957    1.13750    0.35740   1.00
H14      0.93043    1.13750    0.47260   1.00
C3a      0.90596    1.08280    0.38126   1.00
C3a      0.92404    1.08280    0.44874   1.00
H1       0.89967    1.06880    0.35780   1.00
H1       0.93033    1.06880    0.47220   1.00
C2       0.91500    1.06220    0.41500   1.00
C2       0.91500    0.41500    0.26780   1.00
C3a      0.94874    0.42404    0.24720   1.00
C3a      0.88126    0.40596    0.24720   1.00
H1       0.97220    0.43033    0.26120   1.00
H1       0.85780    0.39967    0.26120   1.00
C3a      0.94908    0.42413    0.20630   1.00
C3a      0.88092    0.40587    0.20630   1.00
H11      0.97260    0.43043    0.19250   1.00
H12      0.85740    0.39957    0.19250   1.00
C4       0.91500    0.41500    0.18560   1.00
C4       0.91500    0.41500    1.14440   1.00
C3a      0.88092    0.40587    1.12370   1.00
C3a      0.94908    0.42413    1.12370   1.00
H13      0.85740    0.39957    1.13750   1.00
H14      0.97260    0.43043    1.13750   1.00
C3a      0.88126    0.40596    1.08280   1.00
C3a      0.94874    0.42404    1.08280   1.00
H1       0.85780    0.39967    1.06880   1.00
H1       0.97220    0.43033    1.06880   1.00
C2       0.91500    0.41500    1.06220   1.00
