data_IRMOF10_SG202_interpen_Ligand9cp_label_i.

_audit_creation_method             'generated by an auxiliary program of Tobunporous'

_symmetry_space_group_name_H-M     'P 1'
_symmetry_Int_Tables_number        1
_symmetry_cell_setting             triclinic

_cell_length_a                    34.2800
_cell_length_b                    34.2800
_cell_length_c                    34.2800
_cell_angle_alpha                 90.0000
_cell_angle_beta                  90.0000
_cell_angle_gamma                 90.0000

loop_
_atom_site_label
_atom_site_fract_x
_atom_site_fract_y
_atom_site_fract_z
_atom_site_occupancy
O1       0.75000    0.75000    0.75000   1.00
Zn1      0.71720    0.78280    0.78280   1.00
Zn1      0.78280    0.71720    0.78280   1.00
Zn1      0.78280    0.78280    0.71720   1.00
Zn1      0.71720    0.71720    0.71720   1.00
O2       0.72650    0.77350    0.83820   1.00
O2       0.72650    0.83820    0.77350   1.00
O2       0.66180    0.77350    0.77350   1.00
O2       0.77350    0.72650    0.83820   1.00
O2       0.83820    0.72650    0.77350   1.00
O2       0.77350    0.66180    0.77350   1.00
O2       0.77350    0.83820    0.72650   1.00
O2       0.83820    0.77350    0.72650   1.00
O2       0.77350    0.77350    0.66180   1.00
O2       0.66180    0.72650    0.72650   1.00
O2       0.72650    0.66180    0.72650   1.00
O2       0.72650    0.72650    0.66180   1.00
C1       0.75000    0.75000    0.85520   1.00
C1       0.75000    0.85520    0.75000   1.00
C1       0.64480    0.75000    0.75000   1.00
C1       0.85520    0.75000    0.75000   1.00
C1       0.75000    0.64480    0.75000   1.00
C1       0.75000    0.75000    0.64480   1.00
O1       0.25000    0.25000    0.75000   1.00
Zn1      0.21720    0.28280    0.78280   1.00
Zn1      0.28280    0.21720    0.78280   1.00
Zn1      0.28280    0.28280    0.71720   1.00
Zn1      0.21720    0.21720    0.71720   1.00
O2       0.22650    0.27350    0.83820   1.00
O2       0.22650    0.33820    0.77350   1.00
O2       0.16180    0.27350    0.77350   1.00
O2       0.27350    0.22650    0.83820   1.00
O2       0.33820    0.22650    0.77350   1.00
O2       0.27350    0.16180    0.77350   1.00
O2       0.27350    0.33820    0.72650   1.00
O2       0.33820    0.27350    0.72650   1.00
O2       0.27350    0.27350    0.66180   1.00
O2       0.16180    0.22650    0.72650   1.00
O2       0.22650    0.16180    0.72650   1.00
O2       0.22650    0.22650    0.66180   1.00
C1       0.25000    0.25000    0.85520   1.00
C1       0.25000    0.35520    0.75000   1.00
C1       0.14480    0.25000    0.75000   1.00
C1       0.35520    0.25000    0.75000   1.00
C1       0.25000    0.14480    0.75000   1.00
C1       0.25000    0.25000    0.64480   1.00
O1       0.25000    0.75000    0.25000   1.00
Zn1      0.21720    0.78280    0.28280   1.00
Zn1      0.28280    0.71720    0.28280   1.00
Zn1      0.28280    0.78280    0.21720   1.00
Zn1      0.21720    0.71720    0.21720   1.00
O2       0.22650    0.77350    0.33820   1.00
O2       0.22650    0.83820    0.27350   1.00
O2       0.16180    0.77350    0.27350   1.00
O2       0.27350    0.72650    0.33820   1.00
O2       0.33820    0.72650    0.27350   1.00
O2       0.27350    0.66180    0.27350   1.00
O2       0.27350    0.83820    0.22650   1.00
O2       0.33820    0.77350    0.22650   1.00
O2       0.27350    0.77350    0.16180   1.00
O2       0.16180    0.72650    0.22650   1.00
O2       0.22650    0.66180    0.22650   1.00
O2       0.22650    0.72650    0.16180   1.00
C1       0.25000    0.75000    0.35520   1.00
C1       0.25000    0.85520    0.25000   1.00
C1       0.14480    0.75000    0.25000   1.00
C1       0.35520    0.75000    0.25000   1.00
C1       0.25000    0.64480    0.25000   1.00
C1       0.25000    0.75000    0.14480   1.00
O1       0.75000    0.25000    0.25000   1.00
Zn1      0.71720    0.28280    0.28280   1.00
Zn1      0.78280    0.21720    0.28280   1.00
Zn1      0.78280    0.28280    0.21720   1.00
Zn1      0.71720    0.21720    0.21720   1.00
O2       0.72650    0.27350    0.33820   1.00
O2       0.72650    0.33820    0.27350   1.00
O2       0.66180    0.27350    0.27350   1.00
O2       0.77350    0.22650    0.33820   1.00
O2       0.83820    0.22650    0.27350   1.00
O2       0.77350    0.16180    0.27350   1.00
O2       0.77350    0.33820    0.22650   1.00
O2       0.83820    0.27350    0.22650   1.00
O2       0.77350    0.27350    0.16180   1.00
O2       0.66180    0.22650    0.22650   1.00
O2       0.72650    0.16180    0.22650   1.00
O2       0.72650    0.22650    0.16180   1.00
C1       0.75000    0.25000    0.35520   1.00
C1       0.75000    0.35520    0.25000   1.00
C1       0.64480    0.25000    0.25000   1.00
C1       0.85520    0.25000    0.25000   1.00
C1       0.75000    0.14480    0.25000   1.00
C1       0.75000    0.25000    0.14480   1.00
O1       0.25000    0.25000    0.25000   1.00
Zn1      0.28280    0.21720    0.21720   1.00
Zn1      0.21720    0.28280    0.21720   1.00
Zn1      0.21720    0.21720    0.28280   1.00
Zn1      0.28280    0.28280    0.28280   1.00
O2       0.27350    0.22650    0.16180   1.00
O2       0.27350    0.16180    0.22650   1.00
O2       0.33820    0.22650    0.22650   1.00
O2       0.22650    0.27350    0.16180   1.00
O2       0.16180    0.27350    0.22650   1.00
O2       0.22650    0.33820    0.22650   1.00
O2       0.22650    0.16180    0.27350   1.00
O2       0.16180    0.22650    0.27350   1.00
O2       0.22650    0.22650    0.33820   1.00
O2       0.33820    0.27350    0.27350   1.00
O2       0.27350    0.33820    0.27350   1.00
O2       0.27350    0.27350    0.33820   1.00
C1       0.25000    0.25000    0.14480   1.00
C1       0.25000    0.14480    0.25000   1.00
C1       0.35520    0.25000    0.25000   1.00
C1       0.14480    0.25000    0.25000   1.00
C1       0.25000    0.35520    0.25000   1.00
C1       0.25000    0.25000    0.35520   1.00
O1       0.75000    0.75000    0.25000   1.00
Zn1      0.78280    0.71720    0.21720   1.00
Zn1      0.71720    0.78280    0.21720   1.00
Zn1      0.71720    0.71720    0.28280   1.00
Zn1      0.78280    0.78280    0.28280   1.00
O2       0.77350    0.72650    0.16180   1.00
O2       0.77350    0.66180    0.22650   1.00
O2       0.83820    0.72650    0.22650   1.00
O2       0.72650    0.77350    0.16180   1.00
O2       0.66180    0.77350    0.22650   1.00
O2       0.72650    0.83820    0.22650   1.00
O2       0.72650    0.66180    0.27350   1.00
O2       0.66180    0.72650    0.27350   1.00
O2       0.72650    0.72650    0.33820   1.00
O2       0.83820    0.77350    0.27350   1.00
O2       0.77350    0.83820    0.27350   1.00
O2       0.77350    0.77350    0.33820   1.00
C1       0.75000    0.75000    0.14480   1.00
C1       0.75000    0.64480    0.25000   1.00
C1       0.85520    0.75000    0.25000   1.00
C1       0.64480    0.75000    0.25000   1.00
C1       0.75000    0.85520    0.25000   1.00
C1       0.75000    0.75000    0.35520   1.00
O1       0.75000    0.25000    0.75000   1.00
Zn1      0.78280    0.21720    0.71720   1.00
Zn1      0.71720    0.28280    0.71720   1.00
Zn1      0.71720    0.21720    0.78280   1.00
Zn1      0.78280    0.28280    0.78280   1.00
O2       0.77350    0.22650    0.66180   1.00
O2       0.77350    0.16180    0.72650   1.00
O2       0.83820    0.22650    0.72650   1.00
O2       0.72650    0.27350    0.66180   1.00
O2       0.66180    0.27350    0.72650   1.00
O2       0.72650    0.33820    0.72650   1.00
O2       0.72650    0.16180    0.77350   1.00
O2       0.66180    0.22650    0.77350   1.00
O2       0.72650    0.22650    0.83820   1.00
O2       0.83820    0.27350    0.77350   1.00
O2       0.77350    0.33820    0.77350   1.00
O2       0.77350    0.27350    0.83820   1.00
C1       0.75000    0.25000    0.64480   1.00
C1       0.75000    0.14480    0.75000   1.00
C1       0.85520    0.25000    0.75000   1.00
C1       0.64480    0.25000    0.75000   1.00
C1       0.75000    0.35520    0.75000   1.00
C1       0.75000    0.25000    0.85520   1.00
O1       0.25000    0.75000    0.75000   1.00
Zn1      0.28280    0.71720    0.71720   1.00
Zn1      0.21720    0.78280    0.71720   1.00
Zn1      0.21720    0.71720    0.78280   1.00
Zn1      0.28280    0.78280    0.78280   1.00
O2       0.27350    0.72650    0.66180   1.00
O2       0.27350    0.66180    0.72650   1.00
O2       0.33820    0.72650    0.72650   1.00
O2       0.22650    0.77350    0.66180   1.00
O2       0.16180    0.77350    0.72650   1.00
O2       0.22650    0.83820    0.72650   1.00
O2       0.22650    0.66180    0.77350   1.00
O2       0.16180    0.72650    0.77350   1.00
O2       0.22650    0.72650    0.83820   1.00
O2       0.33820    0.77350    0.77350   1.00
O2       0.27350    0.83820    0.77350   1.00
O2       0.27350    0.77350    0.83820   1.00
C1       0.25000    0.75000    0.64480   1.00
C1       0.25000    0.64480    0.75000   1.00
C1       0.35520    0.75000    0.75000   1.00
C1       0.14480    0.75000    0.75000   1.00
C1       0.25000    0.85520    0.75000   1.00
C1       0.25000    0.75000    0.85520   1.00
O1       0.91500    0.91500    0.91500   1.00
Zn1      0.88220    0.94780    0.94780   1.00
Zn1      0.94780    0.88220    0.94780   1.00
Zn1      0.94780    0.94780    0.88220   1.00
Zn1      0.88220    0.88220    0.88220   1.00
O2       0.89150    0.93850    1.00320   1.00
O2       0.89150    1.00320    0.93850   1.00
O2       0.82680    0.93850    0.93850   1.00
O2       0.93850    0.89150    1.00320   1.00
O2       1.00320    0.89150    0.93850   1.00
O2       0.93850    0.82680    0.93850   1.00
O2       0.93850    1.00320    0.89150   1.00
O2       1.00320    0.93850    0.89150   1.00
O2       0.93850    0.93850    0.82680   1.00
O2       0.82680    0.89150    0.89150   1.00
O2       0.89150    0.82680    0.89150   1.00
O2       0.89150    0.89150    0.82680   1.00
C1       0.91500    0.91500    1.02020   1.00
C1       0.91500    1.02020    0.91500   1.00
C1       0.80980    0.91500    0.91500   1.00
C1       1.02020    0.91500    0.91500   1.00
C1       0.91500    0.80980    0.91500   1.00
C1       0.91500    0.91500    0.80980   1.00
O1       0.41500    0.41500    0.91500   1.00
Zn1      0.38220    0.44780    0.94780   1.00
Zn1      0.44780    0.38220    0.94780   1.00
Zn1      0.44780    0.44780    0.88220   1.00
Zn1      0.38220    0.38220    0.88220   1.00
O2       0.39150    0.43850    1.00320   1.00
O2       0.39150    0.50320    0.93850   1.00
O2       0.32680    0.43850    0.93850   1.00
O2       0.43850    0.39150    1.00320   1.00
O2       0.50320    0.39150    0.93850   1.00
O2       0.43850    0.32680    0.93850   1.00
O2       0.43850    0.50320    0.89150   1.00
O2       0.50320    0.43850    0.89150   1.00
O2       0.43850    0.43850    0.82680   1.00
O2       0.32680    0.39150    0.89150   1.00
O2       0.39150    0.32680    0.89150   1.00
O2       0.39150    0.39150    0.82680   1.00
C1       0.41500    0.41500    1.02020   1.00
C1       0.41500    0.52020    0.91500   1.00
C1       0.30980    0.41500    0.91500   1.00
C1       0.52020    0.41500    0.91500   1.00
C1       0.41500    0.30980    0.91500   1.00
C1       0.41500    0.41500    0.80980   1.00
O1       0.41500    0.91500    0.41500   1.00
Zn1      0.38220    0.94780    0.44780   1.00
Zn1      0.44780    0.88220    0.44780   1.00
Zn1      0.44780    0.94780    0.38220   1.00
Zn1      0.38220    0.88220    0.38220   1.00
O2       0.39150    0.93850    0.50320   1.00
O2       0.39150    1.00320    0.43850   1.00
O2       0.32680    0.93850    0.43850   1.00
O2       0.43850    0.89150    0.50320   1.00
O2       0.50320    0.89150    0.43850   1.00
O2       0.43850    0.82680    0.43850   1.00
O2       0.43850    1.00320    0.39150   1.00
O2       0.50320    0.93850    0.39150   1.00
O2       0.43850    0.93850    0.32680   1.00
O2       0.32680    0.89150    0.39150   1.00
O2       0.39150    0.82680    0.39150   1.00
O2       0.39150    0.89150    0.32680   1.00
C1       0.41500    0.91500    0.52020   1.00
C1       0.41500    1.02020    0.41500   1.00
C1       0.30980    0.91500    0.41500   1.00
C1       0.52020    0.91500    0.41500   1.00
C1       0.41500    0.80980    0.41500   1.00
C1       0.41500    0.91500    0.30980   1.00
O1       0.91500    0.41500    0.41500   1.00
Zn1      0.88220    0.44780    0.44780   1.00
Zn1      0.94780    0.38220    0.44780   1.00
Zn1      0.94780    0.44780    0.38220   1.00
Zn1      0.88220    0.38220    0.38220   1.00
O2       0.89150    0.43850    0.50320   1.00
O2       0.89150    0.50320    0.43850   1.00
O2       0.82680    0.43850    0.43850   1.00
O2       0.93850    0.39150    0.50320   1.00
O2       1.00320    0.39150    0.43850   1.00
O2       0.93850    0.32680    0.43850   1.00
O2       0.93850    0.50320    0.39150   1.00
O2       1.00320    0.43850    0.39150   1.00
O2       0.93850    0.43850    0.32680   1.00
O2       0.82680    0.39150    0.39150   1.00
O2       0.89150    0.32680    0.39150   1.00
O2       0.89150    0.39150    0.32680   1.00
C1       0.91500    0.41500    0.52020   1.00
C1       0.91500    0.52020    0.41500   1.00
C1       0.80980    0.41500    0.41500   1.00
C1       1.02020    0.41500    0.41500   1.00
C1       0.91500    0.30980    0.41500   1.00
C1       0.91500    0.41500    0.30980   1.00
O1       0.41500    0.41500    0.41500   1.00
Zn1      0.44780    0.38220    0.38220   1.00
Zn1      0.38220    0.44780    0.38220   1.00
Zn1      0.38220    0.38220    0.44780   1.00
Zn1      0.44780    0.44780    0.44780   1.00
O2       0.43850    0.39150    0.32680   1.00
O2       0.43850    0.32680    0.39150   1.00
O2       0.50320    0.39150    0.39150   1.00
O2       0.39150    0.43850    0.32680   1.00
O2       0.32680    0.43850    0.39150   1.00
O2       0.39150    0.50320    0.39150   1.00
O2       0.39150    0.32680    0.43850   1.00
O2       0.32680    0.39150    0.43850   1.00
O2       0.39150    0.39150    0.50320   1.00
O2       0.50320    0.43850    0.43850   1.00
O2       0.43850    0.50320    0.43850   1.00
O2       0.43850    0.43850    0.50320   1.00
C1       0.41500    0.41500    0.30980   1.00
C1       0.41500    0.30980    0.41500   1.00
C1       0.52020    0.41500    0.41500   1.00
C1       0.30980    0.41500    0.41500   1.00
C1       0.41500    0.52020    0.41500   1.00
C1       0.41500    0.41500    0.52020   1.00
O1       0.91500    0.91500    0.41500   1.00
Zn1      0.94780    0.88220    0.38220   1.00
Zn1      0.88220    0.94780    0.38220   1.00
Zn1      0.88220    0.88220    0.44780   1.00
Zn1      0.94780    0.94780    0.44780   1.00
O2       0.93850    0.89150    0.32680   1.00
O2       0.93850    0.82680    0.39150   1.00
O2       1.00320    0.89150    0.39150   1.00
O2       0.89150    0.93850    0.32680   1.00
O2       0.82680    0.93850    0.39150   1.00
O2       0.89150    1.00320    0.39150   1.00
O2       0.89150    0.82680    0.43850   1.00
O2       0.82680    0.89150    0.43850   1.00
O2       0.89150    0.89150    0.50320   1.00
O2       1.00320    0.93850    0.43850   1.00
O2       0.93850    1.00320    0.43850   1.00
O2       0.93850    0.93850    0.50320   1.00
C1       0.91500    0.91500    0.30980   1.00
C1       0.91500    0.80980    0.41500   1.00
C1       1.02020    0.91500    0.41500   1.00
C1       0.80980    0.91500    0.41500   1.00
C1       0.91500    1.02020    0.41500   1.00
C1       0.91500    0.91500    0.52020   1.00
O1       0.91500    0.41500    0.91500   1.00
Zn1      0.94780    0.38220    0.88220   1.00
Zn1      0.88220    0.44780    0.88220   1.00
Zn1      0.88220    0.38220    0.94780   1.00
Zn1      0.94780    0.44780    0.94780   1.00
O2       0.93850    0.39150    0.82680   1.00
O2       0.93850    0.32680    0.89150   1.00
O2       1.00320    0.39150    0.89150   1.00
O2       0.89150    0.43850    0.82680   1.00
O2       0.82680    0.43850    0.89150   1.00
O2       0.89150    0.50320    0.89150   1.00
O2       0.89150    0.32680    0.93850   1.00
O2       0.82680    0.39150    0.93850   1.00
O2       0.89150    0.39150    1.00320   1.00
O2       1.00320    0.43850    0.93850   1.00
O2       0.93850    0.50320    0.93850   1.00
O2       0.93850    0.43850    1.00320   1.00
C1       0.91500    0.41500    0.80980   1.00
C1       0.91500    0.30980    0.91500   1.00
C1       1.02020    0.41500    0.91500   1.00
C1       0.80980    0.41500    0.91500   1.00
C1       0.91500    0.52020    0.91500   1.00
C1       0.91500    0.41500    1.02020   1.00
O1       0.41500    0.91500    0.91500   1.00
Zn1      0.44780    0.88220    0.88220   1.00
Zn1      0.38220    0.94780    0.88220   1.00
Zn1      0.38220    0.88220    0.94780   1.00
Zn1      0.44780    0.94780    0.94780   1.00
O2       0.43850    0.89150    0.82680   1.00
O2       0.43850    0.82680    0.89150   1.00
O2       0.50320    0.89150    0.89150   1.00
O2       0.39150    0.93850    0.82680   1.00
O2       0.32680    0.93850    0.89150   1.00
O2       0.39150    1.00320    0.89150   1.00
O2       0.39150    0.82680    0.93850   1.00
O2       0.32680    0.89150    0.93850   1.00
O2       0.39150    0.89150    1.00320   1.00
O2       0.50320    0.93850    0.93850   1.00
O2       0.43850    1.00320    0.93850   1.00
O2       0.43850    0.93850    1.00320   1.00
C1       0.41500    0.91500    0.80980   1.00
C1       0.41500    0.80980    0.91500   1.00
C1       0.52020    0.91500    0.91500   1.00
C1       0.30980    0.91500    0.91500   1.00
C1       0.41500    1.02020    0.91500   1.00
C1       0.41500    0.91500    1.02020   1.00
C4       0.75070    0.74968    0.97917   1.00
C4       0.74930    0.75032    1.02083   1.00
C3       0.77058    0.71995    0.95846   1.00
C3       0.74469    0.71594    1.04321   1.00
C3       0.73142    0.77832    0.95643   1.00
C3       0.75346    0.78563    1.04187   1.00
C2       0.75180    0.74753    0.89487   1.00
C2       0.74831    0.75217    1.10514   1.00
C3       0.77111    0.71900    0.91715   1.00
C3       0.74416    0.71693    1.08449   1.00
C3       0.73202    0.77720    0.91514   1.00
C3a      0.75294    0.78675    1.08328   1.00
H1       0.78615    0.69746    0.97425   1.00
H1       0.74099    0.68810    1.02875   1.00
H1       0.78670    0.69583    0.90240   1.00
H1       0.74039    0.68999    1.10056   1.00
H1       0.71674    0.79952    0.89882   1.00
C5       0.75777    0.82529    1.10380   1.00
H1       0.75741    0.81275    1.02622   1.00
H1       0.71507    0.80135    0.97059   1.00
H2       0.75604    0.82165    1.13599   1.00
H2       0.78727    0.83698    1.09705   1.00
N1       0.72766    0.85284    1.09125   1.00
C6       0.68894    0.84870    1.09644   1.00
C6       0.73355    0.88707    1.07288   1.00
C6       0.66978    0.88055    1.08102   1.00
C6       0.69816    0.90496    1.06604   1.00
H3       0.67528    0.82390    1.11049   1.00
H3       0.76186    0.89853    1.06484   1.00
H3       0.63862    0.88545    1.08076   1.00
H3       0.69354    0.93272    1.05180   1.00
C4       0.74968    0.97917    0.75070   1.00
C4       0.75032    1.02083    0.74930   1.00
C3       0.71995    0.95846    0.77058   1.00
C3       0.71594    1.04321    0.74469   1.00
C3       0.77832    0.95643    0.73142   1.00
C3       0.78563    1.04187    0.75346   1.00
C2       0.74753    0.89487    0.75180   1.00
C2       0.75217    1.10514    0.74831   1.00
C3       0.71900    0.91715    0.77111   1.00
C3       0.71693    1.08449    0.74416   1.00
C3       0.77720    0.91514    0.73202   1.00
C3a      0.78675    1.08328    0.75294   1.00
H1       0.69746    0.97425    0.78615   1.00
H1       0.68810    1.02875    0.74099   1.00
H1       0.69583    0.90240    0.78670   1.00
H1       0.68999    1.10056    0.74039   1.00
H1       0.79952    0.89882    0.71674   1.00
C5       0.82529    1.10380    0.75777   1.00
H1       0.81275    1.02622    0.75741   1.00
H1       0.80135    0.97059    0.71507   1.00
H2       0.82165    1.13599    0.75604   1.00
H2       0.83698    1.09705    0.78727   1.00
N1       0.85284    1.09125    0.72766   1.00
C6       0.84870    1.09644    0.68894   1.00
C6       0.88707    1.07288    0.73355   1.00
C6       0.88055    1.08102    0.66978   1.00
C6       0.90496    1.06604    0.69816   1.00
H3       0.82390    1.11049    0.67528   1.00
H3       0.89853    1.06484    0.76186   1.00
H3       0.88545    1.08076    0.63862   1.00
H3       0.93272    1.05180    0.69354   1.00
C4       0.52083    0.75070    0.75032   1.00
C4       0.47917    0.74930    0.74968   1.00
C3       0.54154    0.77058    0.78005   1.00
C3       0.45679    0.74469    0.78406   1.00
C3       0.54357    0.73142    0.72168   1.00
C3       0.45813    0.75346    0.71437   1.00
C2       0.60513    0.75180    0.75247   1.00
C2       0.39486    0.74831    0.74783   1.00
C3       0.58285    0.77111    0.78100   1.00
C3       0.41551    0.74416    0.78307   1.00
C3       0.58486    0.73202    0.72280   1.00
C3a      0.41672    0.75294    0.71325   1.00
H1       0.52575    0.78615    0.80254   1.00
H1       0.47125    0.74099    0.81190   1.00
H1       0.59760    0.78670    0.80417   1.00
H1       0.39944    0.74039    0.81001   1.00
H1       0.60118    0.71674    0.70048   1.00
C5       0.39620    0.75777    0.67471   1.00
H1       0.47378    0.75741    0.68725   1.00
H1       0.52941    0.71507    0.69865   1.00
H2       0.36401    0.75604    0.67835   1.00
H2       0.40295    0.78727    0.66302   1.00
N1       0.40875    0.72766    0.64716   1.00
C6       0.40356    0.68894    0.65130   1.00
C6       0.42712    0.73355    0.61293   1.00
C6       0.41898    0.66978    0.61945   1.00
C6       0.43396    0.69816    0.59504   1.00
H3       0.38951    0.67528    0.67610   1.00
H3       0.43516    0.76186    0.60147   1.00
H3       0.41924    0.63862    0.61455   1.00
H3       0.44820    0.69354    0.56728   1.00
C4       0.97917    0.75070    0.74968   1.00
C4       1.02083    0.74930    0.75032   1.00
C3       0.95846    0.77058    0.71995   1.00
C3       1.04321    0.74469    0.71594   1.00
C3       0.95643    0.73142    0.77832   1.00
C3       1.04187    0.75346    0.78563   1.00
C2       0.89487    0.75180    0.74753   1.00
C2       1.10514    0.74831    0.75217   1.00
C3       0.91715    0.77111    0.71900   1.00
C3       1.08449    0.74416    0.71693   1.00
C3       0.91514    0.73202    0.77720   1.00
C3a      1.08328    0.75294    0.78675   1.00
H1       0.97425    0.78615    0.69746   1.00
H1       1.02875    0.74099    0.68810   1.00
H1       0.90240    0.78670    0.69583   1.00
H1       1.10056    0.74039    0.68999   1.00
H1       0.89882    0.71674    0.79952   1.00
C5       1.10380    0.75777    0.82529   1.00
H1       1.02622    0.75741    0.81275   1.00
H1       0.97059    0.71507    0.80135   1.00
H2       1.13599    0.75604    0.82165   1.00
H2       1.09705    0.78727    0.83698   1.00
N1       1.09125    0.72766    0.85284   1.00
C6       1.09644    0.68894    0.84870   1.00
C6       1.07288    0.73355    0.88707   1.00
C6       1.08102    0.66978    0.88055   1.00
C6       1.06604    0.69816    0.90496   1.00
H3       1.11049    0.67528    0.82390   1.00
H3       1.06484    0.76186    0.89853   1.00
H3       1.08076    0.63862    0.88545   1.00
H3       1.05180    0.69354    0.93272   1.00
C4       0.75032    0.52083    0.75070   1.00
C4       0.74968    0.47917    0.74930   1.00
C3       0.78005    0.54154    0.77058   1.00
C3       0.78406    0.45679    0.74469   1.00
C3       0.72168    0.54357    0.73142   1.00
C3       0.71437    0.45813    0.75346   1.00
C2       0.75247    0.60513    0.75180   1.00
C2       0.74783    0.39486    0.74831   1.00
C3       0.78100    0.58285    0.77111   1.00
C3       0.78307    0.41551    0.74416   1.00
C3       0.72280    0.58486    0.73202   1.00
C3a      0.71325    0.41672    0.75294   1.00
H1       0.80254    0.52575    0.78615   1.00
H1       0.81190    0.47125    0.74099   1.00
H1       0.80417    0.59760    0.78670   1.00
H1       0.81001    0.39944    0.74039   1.00
H1       0.70048    0.60118    0.71674   1.00
C5       0.67471    0.39620    0.75777   1.00
H1       0.68725    0.47378    0.75741   1.00
H1       0.69865    0.52941    0.71507   1.00
H2       0.67835    0.36401    0.75604   1.00
H2       0.66302    0.40295    0.78727   1.00
N1       0.64716    0.40875    0.72766   1.00
C6       0.65130    0.40356    0.68894   1.00
C6       0.61293    0.42712    0.73355   1.00
C6       0.61945    0.41898    0.66978   1.00
C6       0.59504    0.43396    0.69816   1.00
H3       0.67610    0.38951    0.67528   1.00
H3       0.60147    0.43516    0.76186   1.00
H3       0.61455    0.41924    0.63862   1.00
H3       0.56728    0.44820    0.69354   1.00
C4       0.75070    0.75032    0.52083   1.00
C4       0.74930    0.74968    0.47917   1.00
C3       0.77058    0.78005    0.54154   1.00
C3       0.74469    0.78406    0.45679   1.00
C3       0.73142    0.72168    0.54357   1.00
C3       0.75346    0.71437    0.45813   1.00
C2       0.75180    0.75247    0.60513   1.00
C2       0.74831    0.74783    0.39486   1.00
C3       0.77111    0.78100    0.58285   1.00
C3       0.74416    0.78307    0.41551   1.00
C3       0.73202    0.72280    0.58486   1.00
C3a      0.75294    0.71325    0.41672   1.00
H1       0.78615    0.80254    0.52575   1.00
H1       0.74099    0.81190    0.47125   1.00
H1       0.78670    0.80417    0.59760   1.00
H1       0.74039    0.81001    0.39944   1.00
H1       0.71674    0.70048    0.60118   1.00
C5       0.75777    0.67471    0.39620   1.00
H1       0.75741    0.68725    0.47378   1.00
H1       0.71507    0.69865    0.52941   1.00
H2       0.75604    0.67835    0.36401   1.00
H2       0.78727    0.66302    0.40295   1.00
N1       0.72766    0.64716    0.40875   1.00
C6       0.68894    0.65130    0.40356   1.00
C6       0.73355    0.61293    0.42712   1.00
C6       0.66978    0.61945    0.41898   1.00
C6       0.69816    0.59504    0.43396   1.00
H3       0.67528    0.67610    0.38951   1.00
H3       0.76186    0.60147    0.43516   1.00
H3       0.63862    0.61455    0.41924   1.00
H3       0.69354    0.56728    0.44820   1.00
C4       0.25070    0.24968    0.97917   1.00
C4       0.24930    0.25032    1.02083   1.00
C3       0.27058    0.21995    0.95846   1.00
C3       0.24469    0.21594    1.04321   1.00
C3       0.23142    0.27832    0.95643   1.00
C3       0.25346    0.28563    1.04187   1.00
C2       0.25180    0.24753    0.89487   1.00
C2       0.24831    0.25217    1.10514   1.00
C3       0.27111    0.21900    0.91715   1.00
C3       0.24416    0.21693    1.08449   1.00
C3       0.23202    0.27720    0.91514   1.00
C3a      0.25294    0.28675    1.08328   1.00
H1       0.28615    0.19746    0.97425   1.00
H1       0.24099    0.18810    1.02875   1.00
H1       0.28670    0.19583    0.90240   1.00
H1       0.24039    0.18999    1.10056   1.00
H1       0.21674    0.29952    0.89882   1.00
C5       0.25777    0.32529    1.10380   1.00
H1       0.25741    0.31275    1.02622   1.00
H1       0.21507    0.30135    0.97059   1.00
H2       0.25604    0.32165    1.13599   1.00
H2       0.28727    0.33698    1.09705   1.00
N1       0.22766    0.35284    1.09125   1.00
C6       0.18894    0.34870    1.09644   1.00
C6       0.23355    0.38707    1.07288   1.00
C6       0.16978    0.38055    1.08102   1.00
C6       0.19816    0.40496    1.06604   1.00
H3       0.17528    0.32390    1.11049   1.00
H3       0.26186    0.39853    1.06484   1.00
H3       0.13862    0.38545    1.08076   1.00
H3       0.19354    0.43272    1.05180   1.00
C4       0.24968    0.47917    0.75070   1.00
C4       0.25032    0.52083    0.74930   1.00
C3       0.21995    0.45846    0.77058   1.00
C3       0.21594    0.54321    0.74469   1.00
C3       0.27832    0.45643    0.73142   1.00
C3       0.28563    0.54187    0.75346   1.00
C2       0.24753    0.39487    0.75180   1.00
C2       0.25217    0.60514    0.74831   1.00
C3       0.21900    0.41715    0.77111   1.00
C3       0.21693    0.58449    0.74416   1.00
C3       0.27720    0.41514    0.73202   1.00
C3a      0.28675    0.58328    0.75294   1.00
H1       0.19746    0.47425    0.78615   1.00
H1       0.18810    0.52875    0.74099   1.00
H1       0.19583    0.40240    0.78670   1.00
H1       0.18999    0.60056    0.74039   1.00
H1       0.29952    0.39882    0.71674   1.00
C5       0.32529    0.60380    0.75777   1.00
H1       0.31275    0.52622    0.75741   1.00
H1       0.30135    0.47059    0.71507   1.00
H2       0.32165    0.63599    0.75604   1.00
H2       0.33698    0.59705    0.78727   1.00
N1       0.35284    0.59125    0.72766   1.00
C6       0.34870    0.59644    0.68894   1.00
C6       0.38707    0.57288    0.73355   1.00
C6       0.38055    0.58102    0.66978   1.00
C6       0.40496    0.56604    0.69816   1.00
H3       0.32390    0.61049    0.67528   1.00
H3       0.39853    0.56484    0.76186   1.00
H3       0.38545    0.58076    0.63862   1.00
H3       0.43272    0.55180    0.69354   1.00
C4       0.02083    0.25070    0.75032   1.00
C4       -0.02083   0.24930    0.74968   1.00
C3       0.04154    0.27058    0.78005   1.00
C3       -0.04321   0.24469    0.78406   1.00
C3       0.04357    0.23142    0.72168   1.00
C3       -0.04187   0.25346    0.71437   1.00
C2       0.10513    0.25180    0.75247   1.00
C2       -0.10514   0.24831    0.74783   1.00
C3       0.08285    0.27111    0.78100   1.00
C3       -0.08449   0.24416    0.78307   1.00
C3       0.08486    0.23202    0.72280   1.00
C3a      -0.08328   0.25294    0.71325   1.00
H1       0.02575    0.28615    0.80254   1.00
H1       -0.02875   0.24099    0.81190   1.00
H1       0.09760    0.28670    0.80417   1.00
H1       -0.10056   0.24039    0.81001   1.00
H1       0.10118    0.21674    0.70048   1.00
C5       -0.10380   0.25777    0.67471   1.00
H1       -0.02622   0.25741    0.68725   1.00
H1       0.02941    0.21507    0.69865   1.00
H2       -0.13599   0.25604    0.67835   1.00
H2       -0.09705   0.28727    0.66302   1.00
N1       -0.09125   0.22766    0.64716   1.00
C6       -0.09644   0.18894    0.65130   1.00
C6       -0.07288   0.23355    0.61293   1.00
C6       -0.08102   0.16978    0.61945   1.00
C6       -0.06604   0.19816    0.59504   1.00
H3       -0.11049   0.17528    0.67610   1.00
H3       -0.06484   0.26186    0.60147   1.00
H3       -0.08076   0.13862    0.61455   1.00
H3       -0.05180   0.19354    0.56728   1.00
C4       0.47917    0.25070    0.74968   1.00
C4       0.52083    0.24930    0.75032   1.00
C3       0.45846    0.27058    0.71995   1.00
C3       0.54321    0.24469    0.71594   1.00
C3       0.45643    0.23142    0.77832   1.00
C3       0.54187    0.25346    0.78563   1.00
C2       0.39487    0.25180    0.74753   1.00
C2       0.60514    0.24831    0.75217   1.00
C3       0.41715    0.27111    0.71900   1.00
C3       0.58449    0.24416    0.71693   1.00
C3       0.41514    0.23202    0.77720   1.00
C3a      0.58328    0.25294    0.78675   1.00
H1       0.47425    0.28615    0.69746   1.00
H1       0.52875    0.24099    0.68810   1.00
H1       0.40240    0.28670    0.69583   1.00
H1       0.60056    0.24039    0.68999   1.00
H1       0.39882    0.21674    0.79952   1.00
C5       0.60380    0.25777    0.82529   1.00
H1       0.52622    0.25741    0.81275   1.00
H1       0.47059    0.21507    0.80135   1.00
H2       0.63599    0.25604    0.82165   1.00
H2       0.59705    0.28727    0.83698   1.00
N1       0.59125    0.22766    0.85284   1.00
C6       0.59644    0.18894    0.84870   1.00
C6       0.57288    0.23355    0.88707   1.00
C6       0.58102    0.16978    0.88055   1.00
C6       0.56604    0.19816    0.90496   1.00
H3       0.61049    0.17528    0.82390   1.00
H3       0.56484    0.26186    0.89853   1.00
H3       0.58076    0.13862    0.88545   1.00
H3       0.55180    0.19354    0.93272   1.00
C4       0.25032    0.02083    0.75070   1.00
C4       0.24968    -0.02083   0.74930   1.00
C3       0.28005    0.04154    0.77058   1.00
C3       0.28406    -0.04321   0.74469   1.00
C3       0.22168    0.04357    0.73142   1.00
C3       0.21437    -0.04187   0.75346   1.00
C2       0.25247    0.10513    0.75180   1.00
C2       0.24783    -0.10514   0.74831   1.00
C3       0.28100    0.08285    0.77111   1.00
C3       0.28307    -0.08449   0.74416   1.00
C3       0.22280    0.08486    0.73202   1.00
C3a      0.21325    -0.08328   0.75294   1.00
H1       0.30254    0.02575    0.78615   1.00
H1       0.31190    -0.02875   0.74099   1.00
H1       0.30417    0.09760    0.78670   1.00
H1       0.31001    -0.10056   0.74039   1.00
H1       0.20048    0.10118    0.71674   1.00
C5       0.17471    -0.10380   0.75777   1.00
H1       0.18725    -0.02622   0.75741   1.00
H1       0.19865    0.02941    0.71507   1.00
H2       0.17835    -0.13599   0.75604   1.00
H2       0.16302    -0.09705   0.78727   1.00
N1       0.14716    -0.09125   0.72766   1.00
C6       0.15130    -0.09644   0.68894   1.00
C6       0.11293    -0.07288   0.73355   1.00
C6       0.11945    -0.08102   0.66978   1.00
C6       0.09504    -0.06604   0.69816   1.00
H3       0.17610    -0.11049   0.67528   1.00
H3       0.10147    -0.06484   0.76186   1.00
H3       0.11455    -0.08076   0.63862   1.00
H3       0.06728    -0.05180   0.69354   1.00
C4       0.25070    0.25032    0.52083   1.00
C4       0.24930    0.24968    0.47917   1.00
C3       0.27058    0.28005    0.54154   1.00
C3       0.24469    0.28406    0.45679   1.00
C3       0.23142    0.22168    0.54357   1.00
C3       0.25346    0.21437    0.45813   1.00
C2       0.25180    0.25247    0.60513   1.00
C2       0.24831    0.24783    0.39486   1.00
C3       0.27111    0.28100    0.58285   1.00
C3       0.24416    0.28307    0.41551   1.00
C3       0.23202    0.22280    0.58486   1.00
C3a      0.25294    0.21325    0.41672   1.00
H1       0.28615    0.30254    0.52575   1.00
H1       0.24099    0.31190    0.47125   1.00
H1       0.28670    0.30417    0.59760   1.00
H1       0.24039    0.31001    0.39944   1.00
H1       0.21674    0.20048    0.60118   1.00
C5       0.25777    0.17471    0.39620   1.00
H1       0.25741    0.18725    0.47378   1.00
H1       0.21507    0.19865    0.52941   1.00
H2       0.25604    0.17835    0.36401   1.00
H2       0.28727    0.16302    0.40295   1.00
N1       0.22766    0.14716    0.40875   1.00
C6       0.18894    0.15130    0.40356   1.00
C6       0.23355    0.11293    0.42712   1.00
C6       0.16978    0.11945    0.41898   1.00
C6       0.19816    0.09504    0.43396   1.00
H3       0.17528    0.17610    0.38951   1.00
H3       0.26186    0.10147    0.43516   1.00
H3       0.13862    0.11455    0.41924   1.00
H3       0.19354    0.06728    0.44820   1.00
C4       0.25070    0.74968    0.47917   1.00
C4       0.24930    0.75032    0.52083   1.00
C3       0.27058    0.71995    0.45846   1.00
C3       0.24469    0.71594    0.54321   1.00
C3       0.23142    0.77832    0.45643   1.00
C3       0.25346    0.78563    0.54187   1.00
C2       0.25180    0.74753    0.39487   1.00
C2       0.24831    0.75217    0.60514   1.00
C3       0.27111    0.71900    0.41715   1.00
C3       0.24416    0.71693    0.58449   1.00
C3       0.23202    0.77720    0.41514   1.00
C3a      0.25294    0.78675    0.58328   1.00
H1       0.28615    0.69746    0.47425   1.00
H1       0.24099    0.68810    0.52875   1.00
H1       0.28670    0.69583    0.40240   1.00
H1       0.24039    0.68999    0.60056   1.00
H1       0.21674    0.79952    0.39882   1.00
C5       0.25777    0.82529    0.60380   1.00
H1       0.25741    0.81275    0.52622   1.00
H1       0.21507    0.80135    0.47059   1.00
H2       0.25604    0.82165    0.63599   1.00
H2       0.28727    0.83698    0.59705   1.00
N1       0.22766    0.85284    0.59125   1.00
C6       0.18894    0.84870    0.59644   1.00
C6       0.23355    0.88707    0.57288   1.00
C6       0.16978    0.88055    0.58102   1.00
C6       0.19816    0.90496    0.56604   1.00
H3       0.17528    0.82390    0.61049   1.00
H3       0.26186    0.89853    0.56484   1.00
H3       0.13862    0.88545    0.58076   1.00
H3       0.19354    0.93272    0.55180   1.00
C4       0.24968    0.97917    0.25070   1.00
C4       0.25032    1.02083    0.24930   1.00
C3       0.21995    0.95846    0.27058   1.00
C3       0.21594    1.04321    0.24469   1.00
C3       0.27832    0.95643    0.23142   1.00
C3       0.28563    1.04187    0.25346   1.00
C2       0.24753    0.89487    0.25180   1.00
C2       0.25217    1.10514    0.24831   1.00
C3       0.21900    0.91715    0.27111   1.00
C3       0.21693    1.08449    0.24416   1.00
C3       0.27720    0.91514    0.23202   1.00
C3a      0.28675    1.08328    0.25294   1.00
H1       0.19746    0.97425    0.28615   1.00
H1       0.18810    1.02875    0.24099   1.00
H1       0.19583    0.90240    0.28670   1.00
H1       0.18999    1.10056    0.24039   1.00
H1       0.29952    0.89882    0.21674   1.00
C5       0.32529    1.10380    0.25777   1.00
H1       0.31275    1.02622    0.25741   1.00
H1       0.30135    0.97059    0.21507   1.00
H2       0.32165    1.13599    0.25604   1.00
H2       0.33698    1.09705    0.28727   1.00
N1       0.35284    1.09125    0.22766   1.00
C6       0.34870    1.09644    0.18894   1.00
C6       0.38707    1.07288    0.23355   1.00
C6       0.38055    1.08102    0.16978   1.00
C6       0.40496    1.06604    0.19816   1.00
H3       0.32390    1.11049    0.17528   1.00
H3       0.39853    1.06484    0.26186   1.00
H3       0.38545    1.08076    0.13862   1.00
H3       0.43272    1.05180    0.19354   1.00
C4       0.02083    0.75070    0.25032   1.00
C4       -0.02083   0.74930    0.24968   1.00
C3       0.04154    0.77058    0.28005   1.00
C3       -0.04321   0.74469    0.28406   1.00
C3       0.04357    0.73142    0.22168   1.00
C3       -0.04187   0.75346    0.21437   1.00
C2       0.10513    0.75180    0.25247   1.00
C2       -0.10514   0.74831    0.24783   1.00
C3       0.08285    0.77111    0.28100   1.00
C3       -0.08449   0.74416    0.28307   1.00
C3       0.08486    0.73202    0.22280   1.00
C3a      -0.08328   0.75294    0.21325   1.00
H1       0.02575    0.78615    0.30254   1.00
H1       -0.02875   0.74099    0.31190   1.00
H1       0.09760    0.78670    0.30417   1.00
H1       -0.10056   0.74039    0.31001   1.00
H1       0.10118    0.71674    0.20048   1.00
C5       -0.10380   0.75777    0.17471   1.00
H1       -0.02622   0.75741    0.18725   1.00
H1       0.02941    0.71507    0.19865   1.00
H2       -0.13599   0.75604    0.17835   1.00
H2       -0.09705   0.78727    0.16302   1.00
N1       -0.09125   0.72766    0.14716   1.00
C6       -0.09644   0.68894    0.15130   1.00
C6       -0.07288   0.73355    0.11293   1.00
C6       -0.08102   0.66978    0.11945   1.00
C6       -0.06604   0.69816    0.09504   1.00
H3       -0.11049   0.67528    0.17610   1.00
H3       -0.06484   0.76186    0.10147   1.00
H3       -0.08076   0.63862    0.11455   1.00
H3       -0.05180   0.69354    0.06728   1.00
C4       0.47917    0.75070    0.24968   1.00
C4       0.52083    0.74930    0.25032   1.00
C3       0.45846    0.77058    0.21995   1.00
C3       0.54321    0.74469    0.21594   1.00
C3       0.45643    0.73142    0.27832   1.00
C3       0.54187    0.75346    0.28563   1.00
C2       0.39487    0.75180    0.24753   1.00
C2       0.60514    0.74831    0.25217   1.00
C3       0.41715    0.77111    0.21900   1.00
C3       0.58449    0.74416    0.21693   1.00
C3       0.41514    0.73202    0.27720   1.00
C3a      0.58328    0.75294    0.28675   1.00
H1       0.47425    0.78615    0.19746   1.00
H1       0.52875    0.74099    0.18810   1.00
H1       0.40240    0.78670    0.19583   1.00
H1       0.60056    0.74039    0.18999   1.00
H1       0.39882    0.71674    0.29952   1.00
C5       0.60380    0.75777    0.32529   1.00
H1       0.52622    0.75741    0.31275   1.00
H1       0.47059    0.71507    0.30135   1.00
H2       0.63599    0.75604    0.32165   1.00
H2       0.59705    0.78727    0.33698   1.00
N1       0.59125    0.72766    0.35284   1.00
C6       0.59644    0.68894    0.34870   1.00
C6       0.57288    0.73355    0.38707   1.00
C6       0.58102    0.66978    0.38055   1.00
C6       0.56604    0.69816    0.40496   1.00
H3       0.61049    0.67528    0.32390   1.00
H3       0.56484    0.76186    0.39853   1.00
H3       0.58076    0.63862    0.38545   1.00
H3       0.55180    0.69354    0.43272   1.00
C4       0.25032    0.52083    0.25070   1.00
C4       0.24968    0.47917    0.24930   1.00
C3       0.28005    0.54154    0.27058   1.00
C3       0.28406    0.45679    0.24469   1.00
C3       0.22168    0.54357    0.23142   1.00
C3       0.21437    0.45813    0.25346   1.00
C2       0.25247    0.60513    0.25180   1.00
C2       0.24783    0.39486    0.24831   1.00
C3       0.28100    0.58285    0.27111   1.00
C3       0.28307    0.41551    0.24416   1.00
C3       0.22280    0.58486    0.23202   1.00
C3a      0.21325    0.41672    0.25294   1.00
H1       0.30254    0.52575    0.28615   1.00
H1       0.31190    0.47125    0.24099   1.00
H1       0.30417    0.59760    0.28670   1.00
H1       0.31001    0.39944    0.24039   1.00
H1       0.20048    0.60118    0.21674   1.00
C5       0.17471    0.39620    0.25777   1.00
H1       0.18725    0.47378    0.25741   1.00
H1       0.19865    0.52941    0.21507   1.00
H2       0.17835    0.36401    0.25604   1.00
H2       0.16302    0.40295    0.28727   1.00
N1       0.14716    0.40875    0.22766   1.00
C6       0.15130    0.40356    0.18894   1.00
C6       0.11293    0.42712    0.23355   1.00
C6       0.11945    0.41898    0.16978   1.00
C6       0.09504    0.43396    0.19816   1.00
H3       0.17610    0.38951    0.17528   1.00
H3       0.10147    0.43516    0.26186   1.00
H3       0.11455    0.41924    0.13862   1.00
H3       0.06728    0.44820    0.19354   1.00
C4       0.25070    0.75032    0.02083   1.00
C4       0.24930    0.74968    -0.02083   1.00
C3       0.27058    0.78005    0.04154   1.00
C3       0.24469    0.78406    -0.04321   1.00
C3       0.23142    0.72168    0.04357   1.00
C3       0.25346    0.71437    -0.04187   1.00
C2       0.25180    0.75247    0.10513   1.00
C2       0.24831    0.74783    -0.10514   1.00
C3       0.27111    0.78100    0.08285   1.00
C3       0.24416    0.78307    -0.08449   1.00
C3       0.23202    0.72280    0.08486   1.00
C3a      0.25294    0.71325    -0.08328   1.00
H1       0.28615    0.80254    0.02575   1.00
H1       0.24099    0.81190    -0.02875   1.00
H1       0.28670    0.80417    0.09760   1.00
H1       0.24039    0.81001    -0.10056   1.00
H1       0.21674    0.70048    0.10118   1.00
C5       0.25777    0.67471    -0.10380   1.00
H1       0.25741    0.68725    -0.02622   1.00
H1       0.21507    0.69865    0.02941   1.00
H2       0.25604    0.67835    -0.13599   1.00
H2       0.28727    0.66302    -0.09705   1.00
N1       0.22766    0.64716    -0.09125   1.00
C6       0.18894    0.65130    -0.09644   1.00
C6       0.23355    0.61293    -0.07288   1.00
C6       0.16978    0.61945    -0.08102   1.00
C6       0.19816    0.59504    -0.06604   1.00
H3       0.17528    0.67610    -0.11049   1.00
H3       0.26186    0.60147    -0.06484   1.00
H3       0.13862    0.61455    -0.08076   1.00
H3       0.19354    0.56728    -0.05180   1.00
C4       0.75070    0.24968    0.47917   1.00
C4       0.74930    0.25032    0.52083   1.00
C3       0.77058    0.21995    0.45846   1.00
C3       0.74469    0.21594    0.54321   1.00
C3       0.73142    0.27832    0.45643   1.00
C3       0.75346    0.28563    0.54187   1.00
C2       0.75180    0.24753    0.39487   1.00
C2       0.74831    0.25217    0.60514   1.00
C3       0.77111    0.21900    0.41715   1.00
C3       0.74416    0.21693    0.58449   1.00
C3       0.73202    0.27720    0.41514   1.00
C3a      0.75294    0.28675    0.58328   1.00
H1       0.78615    0.19746    0.47425   1.00
H1       0.74099    0.18810    0.52875   1.00
H1       0.78670    0.19583    0.40240   1.00
H1       0.74039    0.18999    0.60056   1.00
H1       0.71674    0.29952    0.39882   1.00
C5       0.75777    0.32529    0.60380   1.00
H1       0.75741    0.31275    0.52622   1.00
H1       0.71507    0.30135    0.47059   1.00
H2       0.75604    0.32165    0.63599   1.00
H2       0.78727    0.33698    0.59705   1.00
N1       0.72766    0.35284    0.59125   1.00
C6       0.68894    0.34870    0.59644   1.00
C6       0.73355    0.38707    0.57288   1.00
C6       0.66978    0.38055    0.58102   1.00
C6       0.69816    0.40496    0.56604   1.00
H3       0.67528    0.32390    0.61049   1.00
H3       0.76186    0.39853    0.56484   1.00
H3       0.63862    0.38545    0.58076   1.00
H3       0.69354    0.43272    0.55180   1.00
C4       0.74968    0.47917    0.25070   1.00
C4       0.75032    0.52083    0.24930   1.00
C3       0.71995    0.45846    0.27058   1.00
C3       0.71594    0.54321    0.24469   1.00
C3       0.77832    0.45643    0.23142   1.00
C3       0.78563    0.54187    0.25346   1.00
C2       0.74753    0.39487    0.25180   1.00
C2       0.75217    0.60514    0.24831   1.00
C3       0.71900    0.41715    0.27111   1.00
C3       0.71693    0.58449    0.24416   1.00
C3       0.77720    0.41514    0.23202   1.00
C3a      0.78675    0.58328    0.25294   1.00
H1       0.69746    0.47425    0.28615   1.00
H1       0.68810    0.52875    0.24099   1.00
H1       0.69583    0.40240    0.28670   1.00
H1       0.68999    0.60056    0.24039   1.00
H1       0.79952    0.39882    0.21674   1.00
C5       0.82529    0.60380    0.25777   1.00
H1       0.81275    0.52622    0.25741   1.00
H1       0.80135    0.47059    0.21507   1.00
H2       0.82165    0.63599    0.25604   1.00
H2       0.83698    0.59705    0.28727   1.00
N1       0.85284    0.59125    0.22766   1.00
C6       0.84870    0.59644    0.18894   1.00
C6       0.88707    0.57288    0.23355   1.00
C6       0.88055    0.58102    0.16978   1.00
C6       0.90496    0.56604    0.19816   1.00
H3       0.82390    0.61049    0.17528   1.00
H3       0.89853    0.56484    0.26186   1.00
H3       0.88545    0.58076    0.13862   1.00
H3       0.93272    0.55180    0.19354   1.00
C4       0.52083    0.25070    0.25032   1.00
C4       0.47917    0.24930    0.24968   1.00
C3       0.54154    0.27058    0.28005   1.00
C3       0.45679    0.24469    0.28406   1.00
C3       0.54357    0.23142    0.22168   1.00
C3       0.45813    0.25346    0.21437   1.00
C2       0.60513    0.25180    0.25247   1.00
C2       0.39486    0.24831    0.24783   1.00
C3       0.58285    0.27111    0.28100   1.00
C3       0.41551    0.24416    0.28307   1.00
C3       0.58486    0.23202    0.22280   1.00
C3a      0.41672    0.25294    0.21325   1.00
H1       0.52575    0.28615    0.30254   1.00
H1       0.47125    0.24099    0.31190   1.00
H1       0.59760    0.28670    0.30417   1.00
H1       0.39944    0.24039    0.31001   1.00
H1       0.60118    0.21674    0.20048   1.00
C5       0.39620    0.25777    0.17471   1.00
H1       0.47378    0.25741    0.18725   1.00
H1       0.52941    0.21507    0.19865   1.00
H2       0.36401    0.25604    0.17835   1.00
H2       0.40295    0.28727    0.16302   1.00
N1       0.40875    0.22766    0.14716   1.00
C6       0.40356    0.18894    0.15130   1.00
C6       0.42712    0.23355    0.11293   1.00
C6       0.41898    0.16978    0.11945   1.00
C6       0.43396    0.19816    0.09504   1.00
H3       0.38951    0.17528    0.17610   1.00
H3       0.43516    0.26186    0.10147   1.00
H3       0.41924    0.13862    0.11455   1.00
H3       0.44820    0.19354    0.06728   1.00
C4       0.97917    0.25070    0.24968   1.00
C4       1.02083    0.24930    0.25032   1.00
C3       0.95846    0.27058    0.21995   1.00
C3       1.04321    0.24469    0.21594   1.00
C3       0.95643    0.23142    0.27832   1.00
C3       1.04187    0.25346    0.28563   1.00
C2       0.89487    0.25180    0.24753   1.00
C2       1.10514    0.24831    0.25217   1.00
C3       0.91715    0.27111    0.21900   1.00
C3       1.08449    0.24416    0.21693   1.00
C3       0.91514    0.23202    0.27720   1.00
C3a      1.08328    0.25294    0.28675   1.00
H1       0.97425    0.28615    0.19746   1.00
H1       1.02875    0.24099    0.18810   1.00
H1       0.90240    0.28670    0.19583   1.00
H1       1.10056    0.24039    0.18999   1.00
H1       0.89882    0.21674    0.29952   1.00
C5       1.10380    0.25777    0.32529   1.00
H1       1.02622    0.25741    0.31275   1.00
H1       0.97059    0.21507    0.30135   1.00
H2       1.13599    0.25604    0.32165   1.00
H2       1.09705    0.28727    0.33698   1.00
N1       1.09125    0.22766    0.35284   1.00
C6       1.09644    0.18894    0.34870   1.00
C6       1.07288    0.23355    0.38707   1.00
C6       1.08102    0.16978    0.38055   1.00
C6       1.06604    0.19816    0.40496   1.00
H3       1.11049    0.17528    0.32390   1.00
H3       1.06484    0.26186    0.39853   1.00
H3       1.08076    0.13862    0.38545   1.00
H3       1.05180    0.19354    0.43272   1.00
C4       0.75032    0.02083    0.25070   1.00
C4       0.74968    -0.02083   0.24930   1.00
C3       0.78005    0.04154    0.27058   1.00
C3       0.78406    -0.04321   0.24469   1.00
C3       0.72168    0.04357    0.23142   1.00
C3       0.71437    -0.04187   0.25346   1.00
C2       0.75247    0.10513    0.25180   1.00
C2       0.74783    -0.10514   0.24831   1.00
C3       0.78100    0.08285    0.27111   1.00
C3       0.78307    -0.08449   0.24416   1.00
C3       0.72280    0.08486    0.23202   1.00
C3a      0.71325    -0.08328   0.25294   1.00
H1       0.80254    0.02575    0.28615   1.00
H1       0.81190    -0.02875   0.24099   1.00
H1       0.80417    0.09760    0.28670   1.00
H1       0.81001    -0.10056   0.24039   1.00
H1       0.70048    0.10118    0.21674   1.00
C5       0.67471    -0.10380   0.25777   1.00
H1       0.68725    -0.02622   0.25741   1.00
H1       0.69865    0.02941    0.21507   1.00
H2       0.67835    -0.13599   0.25604   1.00
H2       0.66302    -0.09705   0.28727   1.00
N1       0.64716    -0.09125   0.22766   1.00
C6       0.65130    -0.09644   0.18894   1.00
C6       0.61293    -0.07288   0.23355   1.00
C6       0.61945    -0.08102   0.16978   1.00
C6       0.59504    -0.06604   0.19816   1.00
H3       0.67610    -0.11049   0.17528   1.00
H3       0.60147    -0.06484   0.26186   1.00
H3       0.61455    -0.08076   0.13862   1.00
H3       0.56728    -0.05180   0.19354   1.00
C4       0.75070    0.25032    0.02083   1.00
C4       0.74930    0.24968    -0.02083   1.00
C3       0.77058    0.28005    0.04154   1.00
C3       0.74469    0.28406    -0.04321   1.00
C3       0.73142    0.22168    0.04357   1.00
C3       0.75346    0.21437    -0.04187   1.00
C2       0.75180    0.25247    0.10513   1.00
C2       0.74831    0.24783    -0.10514   1.00
C3       0.77111    0.28100    0.08285   1.00
C3       0.74416    0.28307    -0.08449   1.00
C3       0.73202    0.22280    0.08486   1.00
C3a      0.75294    0.21325    -0.08328   1.00
H1       0.78615    0.30254    0.02575   1.00
H1       0.74099    0.31190    -0.02875   1.00
H1       0.78670    0.30417    0.09760   1.00
H1       0.74039    0.31001    -0.10056   1.00
H1       0.71674    0.20048    0.10118   1.00
C5       0.75777    0.17471    -0.10380   1.00
H1       0.75741    0.18725    -0.02622   1.00
H1       0.71507    0.19865    0.02941   1.00
H2       0.75604    0.17835    -0.13599   1.00
H2       0.78727    0.16302    -0.09705   1.00
N1       0.72766    0.14716    -0.09125   1.00
C6       0.68894    0.15130    -0.09644   1.00
C6       0.73355    0.11293    -0.07288   1.00
C6       0.66978    0.11945    -0.08102   1.00
C6       0.69816    0.09504    -0.06604   1.00
H3       0.67528    0.17610    -0.11049   1.00
H3       0.76186    0.10147    -0.06484   1.00
H3       0.63862    0.11455    -0.08076   1.00
H3       0.69354    0.06728    -0.05180   1.00
C4       0.91570    0.91468    1.14417   1.00
C4       0.91430    0.91532    1.18583   1.00
C3       0.93558    0.88495    1.12346   1.00
C3       0.90969    0.88094    1.20821   1.00
C3       0.89642    0.94332    1.12143   1.00
C3       0.91846    0.95063    1.20687   1.00
C2       0.91680    0.91253    1.05987   1.00
C2       0.91331    0.91717    1.27014   1.00
C3       0.93611    0.88400    1.08215   1.00
C3       0.90916    0.88193    1.24949   1.00
C3       0.89702    0.94220    1.08014   1.00
C3a      0.91794    0.95175    1.24828   1.00
H1       0.95115    0.86246    1.13925   1.00
H1       0.90599    0.85310    1.19375   1.00
H1       0.95170    0.86083    1.06740   1.00
H1       0.90539    0.85499    1.26556   1.00
H1       0.88174    0.96452    1.06382   1.00
C5       0.92277    0.99029    1.26880   1.00
H1       0.92241    0.97775    1.19122   1.00
H1       0.88007    0.96635    1.13559   1.00
H2       0.92104    0.98665    1.30099   1.00
H2       0.95227    1.00198    1.26205   1.00
N1       0.89266    1.01784    1.25625   1.00
C6       0.85394    1.01370    1.26144   1.00
C6       0.89855    1.05207    1.23788   1.00
C6       0.83478    1.04555    1.24602   1.00
C6       0.86316    1.06996    1.23104   1.00
H3       0.84028    0.98890    1.27549   1.00
H3       0.92686    1.06353    1.22984   1.00
H3       0.80362    1.05045    1.24576   1.00
H3       0.85854    1.09772    1.21680   1.00
C4       0.91468    1.14417    0.91570   1.00
C4       0.91532    1.18583    0.91430   1.00
C3       0.88495    1.12346    0.93558   1.00
C3       0.88094    1.20821    0.90969   1.00
C3       0.94332    1.12143    0.89642   1.00
C3       0.95063    1.20687    0.91846   1.00
C2       0.91253    1.05987    0.91680   1.00
C2       0.91717    1.27014    0.91331   1.00
C3       0.88400    1.08215    0.93611   1.00
C3       0.88193    1.24949    0.90916   1.00
C3       0.94220    1.08014    0.89702   1.00
C3a      0.95175    1.24828    0.91794   1.00
H1       0.86246    1.13925    0.95115   1.00
H1       0.85310    1.19375    0.90599   1.00
H1       0.86083    1.06740    0.95170   1.00
H1       0.85499    1.26556    0.90539   1.00
H1       0.96452    1.06382    0.88174   1.00
C5       0.99029    1.26880    0.92277   1.00
H1       0.97775    1.19122    0.92241   1.00
H1       0.96635    1.13559    0.88007   1.00
H2       0.98665    1.30099    0.92104   1.00
H2       1.00198    1.26205    0.95227   1.00
N1       1.01784    1.25625    0.89266   1.00
C6       1.01370    1.26144    0.85394   1.00
C6       1.05207    1.23788    0.89855   1.00
C6       1.04555    1.24602    0.83478   1.00
C6       1.06996    1.23104    0.86316   1.00
H3       0.98890    1.27549    0.84028   1.00
H3       1.06353    1.22984    0.92686   1.00
H3       1.05045    1.24576    0.80362   1.00
H3       1.09772    1.21680    0.85854   1.00
C4       0.68583    0.91570    0.91532   1.00
C4       0.64417    0.91430    0.91468   1.00
C3       0.70654    0.93558    0.94505   1.00
C3       0.62179    0.90969    0.94906   1.00
C3       0.70857    0.89642    0.88668   1.00
C3       0.62313    0.91846    0.87937   1.00
C2       0.77013    0.91680    0.91747   1.00
C2       0.55986    0.91331    0.91283   1.00
C3       0.74785    0.93611    0.94600   1.00
C3       0.58051    0.90916    0.94807   1.00
C3       0.74986    0.89702    0.88780   1.00
C3a      0.58172    0.91794    0.87825   1.00
H1       0.69075    0.95115    0.96754   1.00
H1       0.63625    0.90599    0.97690   1.00
H1       0.76260    0.95170    0.96917   1.00
H1       0.56444    0.90539    0.97501   1.00
H1       0.76618    0.88174    0.86548   1.00
C5       0.56120    0.92277    0.83971   1.00
H1       0.63878    0.92241    0.85225   1.00
H1       0.69441    0.88007    0.86365   1.00
H2       0.52901    0.92104    0.84335   1.00
H2       0.56795    0.95227    0.82802   1.00
N1       0.57375    0.89266    0.81216   1.00
C6       0.56856    0.85394    0.81630   1.00
C6       0.59212    0.89855    0.77793   1.00
C6       0.58398    0.83478    0.78445   1.00
C6       0.59896    0.86316    0.76004   1.00
H3       0.55451    0.84028    0.84110   1.00
H3       0.60016    0.92686    0.76647   1.00
H3       0.58424    0.80362    0.77955   1.00
H3       0.61320    0.85854    0.73228   1.00
C4       1.14417    0.91570    0.91468   1.00
C4       1.18583    0.91430    0.91532   1.00
C3       1.12346    0.93558    0.88495   1.00
C3       1.20821    0.90969    0.88094   1.00
C3       1.12143    0.89642    0.94332   1.00
C3       1.20687    0.91846    0.95063   1.00
C2       1.05987    0.91680    0.91253   1.00
C2       1.27014    0.91331    0.91717   1.00
C3       1.08215    0.93611    0.88400   1.00
C3       1.24949    0.90916    0.88193   1.00
C3       1.08014    0.89702    0.94220   1.00
C3a      1.24828    0.91794    0.95175   1.00
H1       1.13925    0.95115    0.86246   1.00
H1       1.19375    0.90599    0.85310   1.00
H1       1.06740    0.95170    0.86083   1.00
H1       1.26556    0.90539    0.85499   1.00
H1       1.06382    0.88174    0.96452   1.00
C5       1.26880    0.92277    0.99029   1.00
H1       1.19122    0.92241    0.97775   1.00
H1       1.13559    0.88007    0.96635   1.00
H2       1.30099    0.92104    0.98665   1.00
H2       1.26205    0.95227    1.00198   1.00
N1       1.25625    0.89266    1.01784   1.00
C6       1.26144    0.85394    1.01370   1.00
C6       1.23788    0.89855    1.05207   1.00
C6       1.24602    0.83478    1.04555   1.00
C6       1.23104    0.86316    1.06996   1.00
H3       1.27549    0.84028    0.98890   1.00
H3       1.22984    0.92686    1.06353   1.00
H3       1.24576    0.80362    1.05045   1.00
H3       1.21680    0.85854    1.09772   1.00
C4       0.91532    0.68583    0.91570   1.00
C4       0.91468    0.64417    0.91430   1.00
C3       0.94505    0.70654    0.93558   1.00
C3       0.94906    0.62179    0.90969   1.00
C3       0.88668    0.70857    0.89642   1.00
C3       0.87937    0.62313    0.91846   1.00
C2       0.91747    0.77013    0.91680   1.00
C2       0.91283    0.55986    0.91331   1.00
C3       0.94600    0.74785    0.93611   1.00
C3       0.94807    0.58051    0.90916   1.00
C3       0.88780    0.74986    0.89702   1.00
C3a      0.87825    0.58172    0.91794   1.00
H1       0.96754    0.69075    0.95115   1.00
H1       0.97690    0.63625    0.90599   1.00
H1       0.96917    0.76260    0.95170   1.00
H1       0.97501    0.56444    0.90539   1.00
H1       0.86548    0.76618    0.88174   1.00
C5       0.83971    0.56120    0.92277   1.00
H1       0.85225    0.63878    0.92241   1.00
H1       0.86365    0.69441    0.88007   1.00
H2       0.84335    0.52901    0.92104   1.00
H2       0.82802    0.56795    0.95227   1.00
N1       0.81216    0.57375    0.89266   1.00
C6       0.81630    0.56856    0.85394   1.00
C6       0.77793    0.59212    0.89855   1.00
C6       0.78445    0.58398    0.83478   1.00
C6       0.76004    0.59896    0.86316   1.00
H3       0.84110    0.55451    0.84028   1.00
H3       0.76647    0.60016    0.92686   1.00
H3       0.77955    0.58424    0.80362   1.00
H3       0.73228    0.61320    0.85854   1.00
C4       0.91570    0.91532    0.68583   1.00
C4       0.91430    0.91468    0.64417   1.00
C3       0.93558    0.94505    0.70654   1.00
C3       0.90969    0.94906    0.62179   1.00
C3       0.89642    0.88668    0.70857   1.00
C3       0.91846    0.87937    0.62313   1.00
C2       0.91680    0.91747    0.77013   1.00
C2       0.91331    0.91283    0.55986   1.00
C3       0.93611    0.94600    0.74785   1.00
C3       0.90916    0.94807    0.58051   1.00
C3       0.89702    0.88780    0.74986   1.00
C3a      0.91794    0.87825    0.58172   1.00
H1       0.95115    0.96754    0.69075   1.00
H1       0.90599    0.97690    0.63625   1.00
H1       0.95170    0.96917    0.76260   1.00
H1       0.90539    0.97501    0.56444   1.00
H1       0.88174    0.86548    0.76618   1.00
C5       0.92277    0.83971    0.56120   1.00
H1       0.92241    0.85225    0.63878   1.00
H1       0.88007    0.86365    0.69441   1.00
H2       0.92104    0.84335    0.52901   1.00
H2       0.95227    0.82802    0.56795   1.00
N1       0.89266    0.81216    0.57375   1.00
C6       0.85394    0.81630    0.56856   1.00
C6       0.89855    0.77793    0.59212   1.00
C6       0.83478    0.78445    0.58398   1.00
C6       0.86316    0.76004    0.59896   1.00
H3       0.84028    0.84110    0.55451   1.00
H3       0.92686    0.76647    0.60016   1.00
H3       0.80362    0.77955    0.58424   1.00
H3       0.85854    0.73228    0.61320   1.00
C4       0.41570    0.41468    1.14417   1.00
C4       0.41430    0.41532    1.18583   1.00
C3       0.43558    0.38495    1.12346   1.00
C3       0.40969    0.38094    1.20821   1.00
C3       0.39642    0.44332    1.12143   1.00
C3       0.41846    0.45063    1.20687   1.00
C2       0.41680    0.41253    1.05987   1.00
C2       0.41331    0.41717    1.27014   1.00
C3       0.43611    0.38400    1.08215   1.00
C3       0.40916    0.38193    1.24949   1.00
C3       0.39702    0.44220    1.08014   1.00
C3a      0.41794    0.45175    1.24828   1.00
H1       0.45115    0.36246    1.13925   1.00
H1       0.40599    0.35310    1.19375   1.00
H1       0.45170    0.36083    1.06740   1.00
H1       0.40539    0.35499    1.26556   1.00
H1       0.38174    0.46452    1.06382   1.00
C5       0.42277    0.49029    1.26880   1.00
H1       0.42241    0.47775    1.19122   1.00
H1       0.38007    0.46635    1.13559   1.00
H2       0.42104    0.48665    1.30099   1.00
H2       0.45227    0.50198    1.26205   1.00
N1       0.39266    0.51784    1.25625   1.00
C6       0.35394    0.51370    1.26144   1.00
C6       0.39855    0.55207    1.23788   1.00
C6       0.33478    0.54555    1.24602   1.00
C6       0.36316    0.56996    1.23104   1.00
H3       0.34028    0.48890    1.27549   1.00
H3       0.42686    0.56353    1.22984   1.00
H3       0.30362    0.55045    1.24576   1.00
H3       0.35854    0.59772    1.21680   1.00
C4       0.41468    0.64417    0.91570   1.00
C4       0.41532    0.68583    0.91430   1.00
C3       0.38495    0.62346    0.93558   1.00
C3       0.38094    0.70821    0.90969   1.00
C3       0.44332    0.62143    0.89642   1.00
C3       0.45063    0.70687    0.91846   1.00
C2       0.41253    0.55987    0.91680   1.00
C2       0.41717    0.77014    0.91331   1.00
C3       0.38400    0.58215    0.93611   1.00
C3       0.38193    0.74949    0.90916   1.00
C3       0.44220    0.58014    0.89702   1.00
C3a      0.45175    0.74828    0.91794   1.00
H1       0.36246    0.63925    0.95115   1.00
H1       0.35310    0.69375    0.90599   1.00
H1       0.36083    0.56740    0.95170   1.00
H1       0.35499    0.76556    0.90539   1.00
H1       0.46452    0.56382    0.88174   1.00
C5       0.49029    0.76880    0.92277   1.00
H1       0.47775    0.69122    0.92241   1.00
H1       0.46635    0.63559    0.88007   1.00
H2       0.48665    0.80099    0.92104   1.00
H2       0.50198    0.76205    0.95227   1.00
N1       0.51784    0.75625    0.89266   1.00
C6       0.51370    0.76144    0.85394   1.00
C6       0.55207    0.73788    0.89855   1.00
C6       0.54555    0.74602    0.83478   1.00
C6       0.56996    0.73104    0.86316   1.00
H3       0.48890    0.77549    0.84028   1.00
H3       0.56353    0.72984    0.92686   1.00
H3       0.55045    0.74576    0.80362   1.00
H3       0.59772    0.71680    0.85854   1.00
C4       0.18583    0.41570    0.91532   1.00
C4       0.14417    0.41430    0.91468   1.00
C3       0.20654    0.43558    0.94505   1.00
C3       0.12179    0.40969    0.94906   1.00
C3       0.20857    0.39642    0.88668   1.00
C3       0.12313    0.41846    0.87937   1.00
C2       0.27013    0.41680    0.91747   1.00
C2       0.05986    0.41331    0.91283   1.00
C3       0.24785    0.43611    0.94600   1.00
C3       0.08051    0.40916    0.94807   1.00
C3       0.24986    0.39702    0.88780   1.00
C3a      0.08172    0.41794    0.87825   1.00
H1       0.19075    0.45115    0.96754   1.00
H1       0.13625    0.40599    0.97690   1.00
H1       0.26260    0.45170    0.96917   1.00
H1       0.06444    0.40539    0.97501   1.00
H1       0.26618    0.38174    0.86548   1.00
C5       0.06120    0.42277    0.83971   1.00
H1       0.13878    0.42241    0.85225   1.00
H1       0.19441    0.38007    0.86365   1.00
H2       0.02901    0.42104    0.84335   1.00
H2       0.06795    0.45227    0.82802   1.00
N1       0.07375    0.39266    0.81216   1.00
C6       0.06856    0.35394    0.81630   1.00
C6       0.09212    0.39855    0.77793   1.00
C6       0.08398    0.33478    0.78445   1.00
C6       0.09896    0.36316    0.76004   1.00
H3       0.05451    0.34028    0.84110   1.00
H3       0.10016    0.42686    0.76647   1.00
H3       0.08424    0.30362    0.77955   1.00
H3       0.11320    0.35854    0.73228   1.00
C4       0.64417    0.41570    0.91468   1.00
C4       0.68583    0.41430    0.91532   1.00
C3       0.62346    0.43558    0.88495   1.00
C3       0.70821    0.40969    0.88094   1.00
C3       0.62143    0.39642    0.94332   1.00
C3       0.70687    0.41846    0.95063   1.00
C2       0.55987    0.41680    0.91253   1.00
C2       0.77014    0.41331    0.91717   1.00
C3       0.58215    0.43611    0.88400   1.00
C3       0.74949    0.40916    0.88193   1.00
C3       0.58014    0.39702    0.94220   1.00
C3a      0.74828    0.41794    0.95175   1.00
H1       0.63925    0.45115    0.86246   1.00
H1       0.69375    0.40599    0.85310   1.00
H1       0.56740    0.45170    0.86083   1.00
H1       0.76556    0.40539    0.85499   1.00
H1       0.56382    0.38174    0.96452   1.00
C5       0.76880    0.42277    0.99029   1.00
H1       0.69122    0.42241    0.97775   1.00
H1       0.63559    0.38007    0.96635   1.00
H2       0.80099    0.42104    0.98665   1.00
H2       0.76205    0.45227    1.00198   1.00
N1       0.75625    0.39266    1.01784   1.00
C6       0.76144    0.35394    1.01370   1.00
C6       0.73788    0.39855    1.05207   1.00
C6       0.74602    0.33478    1.04555   1.00
C6       0.73104    0.36316    1.06996   1.00
H3       0.77549    0.34028    0.98890   1.00
H3       0.72984    0.42686    1.06353   1.00
H3       0.74576    0.30362    1.05045   1.00
H3       0.71680    0.35854    1.09772   1.00
C4       0.41532    0.18583    0.91570   1.00
C4       0.41468    0.14417    0.91430   1.00
C3       0.44505    0.20654    0.93558   1.00
C3       0.44906    0.12179    0.90969   1.00
C3       0.38668    0.20857    0.89642   1.00
C3       0.37937    0.12313    0.91846   1.00
C2       0.41747    0.27013    0.91680   1.00
C2       0.41283    0.05986    0.91331   1.00
C3       0.44600    0.24785    0.93611   1.00
C3       0.44807    0.08051    0.90916   1.00
C3       0.38780    0.24986    0.89702   1.00
C3a      0.37825    0.08172    0.91794   1.00
H1       0.46754    0.19075    0.95115   1.00
H1       0.47690    0.13625    0.90599   1.00
H1       0.46917    0.26260    0.95170   1.00
H1       0.47501    0.06444    0.90539   1.00
H1       0.36548    0.26618    0.88174   1.00
C5       0.33971    0.06120    0.92277   1.00
H1       0.35225    0.13878    0.92241   1.00
H1       0.36365    0.19441    0.88007   1.00
H2       0.34335    0.02901    0.92104   1.00
H2       0.32802    0.06795    0.95227   1.00
N1       0.31216    0.07375    0.89266   1.00
C6       0.31630    0.06856    0.85394   1.00
C6       0.27793    0.09212    0.89855   1.00
C6       0.28445    0.08398    0.83478   1.00
C6       0.26004    0.09896    0.86316   1.00
H3       0.34110    0.05451    0.84028   1.00
H3       0.26647    0.10016    0.92686   1.00
H3       0.27955    0.08424    0.80362   1.00
H3       0.23228    0.11320    0.85854   1.00
C4       0.41570    0.41532    0.68583   1.00
C4       0.41430    0.41468    0.64417   1.00
C3       0.43558    0.44505    0.70654   1.00
C3       0.40969    0.44906    0.62179   1.00
C3       0.39642    0.38668    0.70857   1.00
C3       0.41846    0.37937    0.62313   1.00
C2       0.41680    0.41747    0.77013   1.00
C2       0.41331    0.41283    0.55986   1.00
C3       0.43611    0.44600    0.74785   1.00
C3       0.40916    0.44807    0.58051   1.00
C3       0.39702    0.38780    0.74986   1.00
C3a      0.41794    0.37825    0.58172   1.00
H1       0.45115    0.46754    0.69075   1.00
H1       0.40599    0.47690    0.63625   1.00
H1       0.45170    0.46917    0.76260   1.00
H1       0.40539    0.47501    0.56444   1.00
H1       0.38174    0.36548    0.76618   1.00
C5       0.42277    0.33971    0.56120   1.00
H1       0.42241    0.35225    0.63878   1.00
H1       0.38007    0.36365    0.69441   1.00
H2       0.42104    0.34335    0.52901   1.00
H2       0.45227    0.32802    0.56795   1.00
N1       0.39266    0.31216    0.57375   1.00
C6       0.35394    0.31630    0.56856   1.00
C6       0.39855    0.27793    0.59212   1.00
C6       0.33478    0.28445    0.58398   1.00
C6       0.36316    0.26004    0.59896   1.00
H3       0.34028    0.34110    0.55451   1.00
H3       0.42686    0.26647    0.60016   1.00
H3       0.30362    0.27955    0.58424   1.00
H3       0.35854    0.23228    0.61320   1.00
C4       0.41570    0.91468    0.64417   1.00
C4       0.41430    0.91532    0.68583   1.00
C3       0.43558    0.88495    0.62346   1.00
C3       0.40969    0.88094    0.70821   1.00
C3       0.39642    0.94332    0.62143   1.00
C3       0.41846    0.95063    0.70687   1.00
C2       0.41680    0.91253    0.55987   1.00
C2       0.41331    0.91717    0.77014   1.00
C3       0.43611    0.88400    0.58215   1.00
C3       0.40916    0.88193    0.74949   1.00
C3       0.39702    0.94220    0.58014   1.00
C3a      0.41794    0.95175    0.74828   1.00
H1       0.45115    0.86246    0.63925   1.00
H1       0.40599    0.85310    0.69375   1.00
H1       0.45170    0.86083    0.56740   1.00
H1       0.40539    0.85499    0.76556   1.00
H1       0.38174    0.96452    0.56382   1.00
C5       0.42277    0.99029    0.76880   1.00
H1       0.42241    0.97775    0.69122   1.00
H1       0.38007    0.96635    0.63559   1.00
H2       0.42104    0.98665    0.80099   1.00
H2       0.45227    1.00198    0.76205   1.00
N1       0.39266    1.01784    0.75625   1.00
C6       0.35394    1.01370    0.76144   1.00
C6       0.39855    1.05207    0.73788   1.00
C6       0.33478    1.04555    0.74602   1.00
C6       0.36316    1.06996    0.73104   1.00
H3       0.34028    0.98890    0.77549   1.00
H3       0.42686    1.06353    0.72984   1.00
H3       0.30362    1.05045    0.74576   1.00
H3       0.35854    1.09772    0.71680   1.00
C4       0.41468    1.14417    0.41570   1.00
C4       0.41532    1.18583    0.41430   1.00
C3       0.38495    1.12346    0.43558   1.00
C3       0.38094    1.20821    0.40969   1.00
C3       0.44332    1.12143    0.39642   1.00
C3       0.45063    1.20687    0.41846   1.00
C2       0.41253    1.05987    0.41680   1.00
C2       0.41717    1.27014    0.41331   1.00
C3       0.38400    1.08215    0.43611   1.00
C3       0.38193    1.24949    0.40916   1.00
C3       0.44220    1.08014    0.39702   1.00
C3a      0.45175    1.24828    0.41794   1.00
H1       0.36246    1.13925    0.45115   1.00
H1       0.35310    1.19375    0.40599   1.00
H1       0.36083    1.06740    0.45170   1.00
H1       0.35499    1.26556    0.40539   1.00
H1       0.46452    1.06382    0.38174   1.00
C5       0.49029    1.26880    0.42277   1.00
H1       0.47775    1.19122    0.42241   1.00
H1       0.46635    1.13559    0.38007   1.00
H2       0.48665    1.30099    0.42104   1.00
H2       0.50198    1.26205    0.45227   1.00
N1       0.51784    1.25625    0.39266   1.00
C6       0.51370    1.26144    0.35394   1.00
C6       0.55207    1.23788    0.39855   1.00
C6       0.54555    1.24602    0.33478   1.00
C6       0.56996    1.23104    0.36316   1.00
H3       0.48890    1.27549    0.34028   1.00
H3       0.56353    1.22984    0.42686   1.00
H3       0.55045    1.24576    0.30362   1.00
H3       0.59772    1.21680    0.35854   1.00
C4       0.18583    0.91570    0.41532   1.00
C4       0.14417    0.91430    0.41468   1.00
C3       0.20654    0.93558    0.44505   1.00
C3       0.12179    0.90969    0.44906   1.00
C3       0.20857    0.89642    0.38668   1.00
C3       0.12313    0.91846    0.37937   1.00
C2       0.27013    0.91680    0.41747   1.00
C2       0.05986    0.91331    0.41283   1.00
C3       0.24785    0.93611    0.44600   1.00
C3       0.08051    0.90916    0.44807   1.00
C3       0.24986    0.89702    0.38780   1.00
C3a      0.08172    0.91794    0.37825   1.00
H1       0.19075    0.95115    0.46754   1.00
H1       0.13625    0.90599    0.47690   1.00
H1       0.26260    0.95170    0.46917   1.00
H1       0.06444    0.90539    0.47501   1.00
H1       0.26618    0.88174    0.36548   1.00
C5       0.06120    0.92277    0.33971   1.00
H1       0.13878    0.92241    0.35225   1.00
H1       0.19441    0.88007    0.36365   1.00
H2       0.02901    0.92104    0.34335   1.00
H2       0.06795    0.95227    0.32802   1.00
N1       0.07375    0.89266    0.31216   1.00
C6       0.06856    0.85394    0.31630   1.00
C6       0.09212    0.89855    0.27793   1.00
C6       0.08398    0.83478    0.28445   1.00
C6       0.09896    0.86316    0.26004   1.00
H3       0.05451    0.84028    0.34110   1.00
H3       0.10016    0.92686    0.26647   1.00
H3       0.08424    0.80362    0.27955   1.00
H3       0.11320    0.85854    0.23228   1.00
C4       0.64417    0.91570    0.41468   1.00
C4       0.68583    0.91430    0.41532   1.00
C3       0.62346    0.93558    0.38495   1.00
C3       0.70821    0.90969    0.38094   1.00
C3       0.62143    0.89642    0.44332   1.00
C3       0.70687    0.91846    0.45063   1.00
C2       0.55987    0.91680    0.41253   1.00
C2       0.77014    0.91331    0.41717   1.00
C3       0.58215    0.93611    0.38400   1.00
C3       0.74949    0.90916    0.38193   1.00
C3       0.58014    0.89702    0.44220   1.00
C3a      0.74828    0.91794    0.45175   1.00
H1       0.63925    0.95115    0.36246   1.00
H1       0.69375    0.90599    0.35310   1.00
H1       0.56740    0.95170    0.36083   1.00
H1       0.76556    0.90539    0.35499   1.00
H1       0.56382    0.88174    0.46452   1.00
C5       0.76880    0.92277    0.49029   1.00
H1       0.69122    0.92241    0.47775   1.00
H1       0.63559    0.88007    0.46635   1.00
H2       0.80099    0.92104    0.48665   1.00
H2       0.76205    0.95227    0.50198   1.00
N1       0.75625    0.89266    0.51784   1.00
C6       0.76144    0.85394    0.51370   1.00
C6       0.73788    0.89855    0.55207   1.00
C6       0.74602    0.83478    0.54555   1.00
C6       0.73104    0.86316    0.56996   1.00
H3       0.77549    0.84028    0.48890   1.00
H3       0.72984    0.92686    0.56353   1.00
H3       0.74576    0.80362    0.55045   1.00
H3       0.71680    0.85854    0.59772   1.00
C4       0.41532    0.68583    0.41570   1.00
C4       0.41468    0.64417    0.41430   1.00
C3       0.44505    0.70654    0.43558   1.00
C3       0.44906    0.62179    0.40969   1.00
C3       0.38668    0.70857    0.39642   1.00
C3       0.37937    0.62313    0.41846   1.00
C2       0.41747    0.77013    0.41680   1.00
C2       0.41283    0.55986    0.41331   1.00
C3       0.44600    0.74785    0.43611   1.00
C3       0.44807    0.58051    0.40916   1.00
C3       0.38780    0.74986    0.39702   1.00
C3a      0.37825    0.58172    0.41794   1.00
H1       0.46754    0.69075    0.45115   1.00
H1       0.47690    0.63625    0.40599   1.00
H1       0.46917    0.76260    0.45170   1.00
H1       0.47501    0.56444    0.40539   1.00
H1       0.36548    0.76618    0.38174   1.00
C5       0.33971    0.56120    0.42277   1.00
H1       0.35225    0.63878    0.42241   1.00
H1       0.36365    0.69441    0.38007   1.00
H2       0.34335    0.52901    0.42104   1.00
H2       0.32802    0.56795    0.45227   1.00
N1       0.31216    0.57375    0.39266   1.00
C6       0.31630    0.56856    0.35394   1.00
C6       0.27793    0.59212    0.39855   1.00
C6       0.28445    0.58398    0.33478   1.00
C6       0.26004    0.59896    0.36316   1.00
H3       0.34110    0.55451    0.34028   1.00
H3       0.26647    0.60016    0.42686   1.00
H3       0.27955    0.58424    0.30362   1.00
H3       0.23228    0.61320    0.35854   1.00
C4       0.41570    0.91532    0.18583   1.00
C4       0.41430    0.91468    0.14417   1.00
C3       0.43558    0.94505    0.20654   1.00
C3       0.40969    0.94906    0.12179   1.00
C3       0.39642    0.88668    0.20857   1.00
C3       0.41846    0.87937    0.12313   1.00
C2       0.41680    0.91747    0.27013   1.00
C2       0.41331    0.91283    0.05986   1.00
C3       0.43611    0.94600    0.24785   1.00
C3       0.40916    0.94807    0.08051   1.00
C3       0.39702    0.88780    0.24986   1.00
C3a      0.41794    0.87825    0.08172   1.00
H1       0.45115    0.96754    0.19075   1.00
H1       0.40599    0.97690    0.13625   1.00
H1       0.45170    0.96917    0.26260   1.00
H1       0.40539    0.97501    0.06444   1.00
H1       0.38174    0.86548    0.26618   1.00
C5       0.42277    0.83971    0.06120   1.00
H1       0.42241    0.85225    0.13878   1.00
H1       0.38007    0.86365    0.19441   1.00
H2       0.42104    0.84335    0.02901   1.00
H2       0.45227    0.82802    0.06795   1.00
N1       0.39266    0.81216    0.07375   1.00
C6       0.35394    0.81630    0.06856   1.00
C6       0.39855    0.77793    0.09212   1.00
C6       0.33478    0.78445    0.08398   1.00
C6       0.36316    0.76004    0.09896   1.00
H3       0.34028    0.84110    0.05451   1.00
H3       0.42686    0.76647    0.10016   1.00
H3       0.30362    0.77955    0.08424   1.00
H3       0.35854    0.73228    0.11320   1.00
C4       0.91570    0.41468    0.64417   1.00
C4       0.91430    0.41532    0.68583   1.00
C3       0.93558    0.38495    0.62346   1.00
C3       0.90969    0.38094    0.70821   1.00
C3       0.89642    0.44332    0.62143   1.00
C3       0.91846    0.45063    0.70687   1.00
C2       0.91680    0.41253    0.55987   1.00
C2       0.91331    0.41717    0.77014   1.00
C3       0.93611    0.38400    0.58215   1.00
C3       0.90916    0.38193    0.74949   1.00
C3       0.89702    0.44220    0.58014   1.00
C3a      0.91794    0.45175    0.74828   1.00
H1       0.95115    0.36246    0.63925   1.00
H1       0.90599    0.35310    0.69375   1.00
H1       0.95170    0.36083    0.56740   1.00
H1       0.90539    0.35499    0.76556   1.00
H1       0.88174    0.46452    0.56382   1.00
C5       0.92277    0.49029    0.76880   1.00
H1       0.92241    0.47775    0.69122   1.00
H1       0.88007    0.46635    0.63559   1.00
H2       0.92104    0.48665    0.80099   1.00
H2       0.95227    0.50198    0.76205   1.00
N1       0.89266    0.51784    0.75625   1.00
C6       0.85394    0.51370    0.76144   1.00
C6       0.89855    0.55207    0.73788   1.00
C6       0.83478    0.54555    0.74602   1.00
C6       0.86316    0.56996    0.73104   1.00
H3       0.84028    0.48890    0.77549   1.00
H3       0.92686    0.56353    0.72984   1.00
H3       0.80362    0.55045    0.74576   1.00
H3       0.85854    0.59772    0.71680   1.00
C4       0.91468    0.64417    0.41570   1.00
C4       0.91532    0.68583    0.41430   1.00
C3       0.88495    0.62346    0.43558   1.00
C3       0.88094    0.70821    0.40969   1.00
C3       0.94332    0.62143    0.39642   1.00
C3       0.95063    0.70687    0.41846   1.00
C2       0.91253    0.55987    0.41680   1.00
C2       0.91717    0.77014    0.41331   1.00
C3       0.88400    0.58215    0.43611   1.00
C3       0.88193    0.74949    0.40916   1.00
C3       0.94220    0.58014    0.39702   1.00
C3a      0.95175    0.74828    0.41794   1.00
H1       0.86246    0.63925    0.45115   1.00
H1       0.85310    0.69375    0.40599   1.00
H1       0.86083    0.56740    0.45170   1.00
H1       0.85499    0.76556    0.40539   1.00
H1       0.96452    0.56382    0.38174   1.00
C5       0.99029    0.76880    0.42277   1.00
H1       0.97775    0.69122    0.42241   1.00
H1       0.96635    0.63559    0.38007   1.00
H2       0.98665    0.80099    0.42104   1.00
H2       1.00198    0.76205    0.45227   1.00
N1       1.01784    0.75625    0.39266   1.00
C6       1.01370    0.76144    0.35394   1.00
C6       1.05207    0.73788    0.39855   1.00
C6       1.04555    0.74602    0.33478   1.00
C6       1.06996    0.73104    0.36316   1.00
H3       0.98890    0.77549    0.34028   1.00
H3       1.06353    0.72984    0.42686   1.00
H3       1.05045    0.74576    0.30362   1.00
H3       1.09772    0.71680    0.35854   1.00
C4       0.68583    0.41570    0.41532   1.00
C4       0.64417    0.41430    0.41468   1.00
C3       0.70654    0.43558    0.44505   1.00
C3       0.62179    0.40969    0.44906   1.00
C3       0.70857    0.39642    0.38668   1.00
C3       0.62313    0.41846    0.37937   1.00
C2       0.77013    0.41680    0.41747   1.00
C2       0.55986    0.41331    0.41283   1.00
C3       0.74785    0.43611    0.44600   1.00
C3       0.58051    0.40916    0.44807   1.00
C3       0.74986    0.39702    0.38780   1.00
C3a      0.58172    0.41794    0.37825   1.00
H1       0.69075    0.45115    0.46754   1.00
H1       0.63625    0.40599    0.47690   1.00
H1       0.76260    0.45170    0.46917   1.00
H1       0.56444    0.40539    0.47501   1.00
H1       0.76618    0.38174    0.36548   1.00
C5       0.56120    0.42277    0.33971   1.00
H1       0.63878    0.42241    0.35225   1.00
H1       0.69441    0.38007    0.36365   1.00
H2       0.52901    0.42104    0.34335   1.00
H2       0.56795    0.45227    0.32802   1.00
N1       0.57375    0.39266    0.31216   1.00
C6       0.56856    0.35394    0.31630   1.00
C6       0.59212    0.39855    0.27793   1.00
C6       0.58398    0.33478    0.28445   1.00
C6       0.59896    0.36316    0.26004   1.00
H3       0.55451    0.34028    0.34110   1.00
H3       0.60016    0.42686    0.26647   1.00
H3       0.58424    0.30362    0.27955   1.00
H3       0.61320    0.35854    0.23228   1.00
C4       1.14417    0.41570    0.41468   1.00
C4       1.18583    0.41430    0.41532   1.00
C3       1.12346    0.43558    0.38495   1.00
C3       1.20821    0.40969    0.38094   1.00
C3       1.12143    0.39642    0.44332   1.00
C3       1.20687    0.41846    0.45063   1.00
C2       1.05987    0.41680    0.41253   1.00
C2       1.27014    0.41331    0.41717   1.00
C3       1.08215    0.43611    0.38400   1.00
C3       1.24949    0.40916    0.38193   1.00
C3       1.08014    0.39702    0.44220   1.00
C3a      1.24828    0.41794    0.45175   1.00
H1       1.13925    0.45115    0.36246   1.00
H1       1.19375    0.40599    0.35310   1.00
H1       1.06740    0.45170    0.36083   1.00
H1       1.26556    0.40539    0.35499   1.00
H1       1.06382    0.38174    0.46452   1.00
C5       1.26880    0.42277    0.49029   1.00
H1       1.19122    0.42241    0.47775   1.00
H1       1.13559    0.38007    0.46635   1.00
H2       1.30099    0.42104    0.48665   1.00
H2       1.26205    0.45227    0.50198   1.00
N1       1.25625    0.39266    0.51784   1.00
C6       1.26144    0.35394    0.51370   1.00
C6       1.23788    0.39855    0.55207   1.00
C6       1.24602    0.33478    0.54555   1.00
C6       1.23104    0.36316    0.56996   1.00
H3       1.27549    0.34028    0.48890   1.00
H3       1.22984    0.42686    0.56353   1.00
H3       1.24576    0.30362    0.55045   1.00
H3       1.21680    0.35854    0.59772   1.00
C4       0.91532    0.18583    0.41570   1.00
C4       0.91468    0.14417    0.41430   1.00
C3       0.94505    0.20654    0.43558   1.00
C3       0.94906    0.12179    0.40969   1.00
C3       0.88668    0.20857    0.39642   1.00
C3       0.87937    0.12313    0.41846   1.00
C2       0.91747    0.27013    0.41680   1.00
C2       0.91283    0.05986    0.41331   1.00
C3       0.94600    0.24785    0.43611   1.00
C3       0.94807    0.08051    0.40916   1.00
C3       0.88780    0.24986    0.39702   1.00
C3a      0.87825    0.08172    0.41794   1.00
H1       0.96754    0.19075    0.45115   1.00
H1       0.97690    0.13625    0.40599   1.00
H1       0.96917    0.26260    0.45170   1.00
H1       0.97501    0.06444    0.40539   1.00
H1       0.86548    0.26618    0.38174   1.00
C5       0.83971    0.06120    0.42277   1.00
H1       0.85225    0.13878    0.42241   1.00
H1       0.86365    0.19441    0.38007   1.00
H2       0.84335    0.02901    0.42104   1.00
H2       0.82802    0.06795    0.45227   1.00
N1       0.81216    0.07375    0.39266   1.00
C6       0.81630    0.06856    0.35394   1.00
C6       0.77793    0.09212    0.39855   1.00
C6       0.78445    0.08398    0.33478   1.00
C6       0.76004    0.09896    0.36316   1.00
H3       0.84110    0.05451    0.34028   1.00
H3       0.76647    0.10016    0.42686   1.00
H3       0.77955    0.08424    0.30362   1.00
H3       0.73228    0.11320    0.35854   1.00
C4       0.91570    0.41532    0.18583   1.00
C4       0.91430    0.41468    0.14417   1.00
C3       0.93558    0.44505    0.20654   1.00
C3       0.90969    0.44906    0.12179   1.00
C3       0.89642    0.38668    0.20857   1.00
C3       0.91846    0.37937    0.12313   1.00
C2       0.91680    0.41747    0.27013   1.00
C2       0.91331    0.41283    0.05986   1.00
C3       0.93611    0.44600    0.24785   1.00
C3       0.90916    0.44807    0.08051   1.00
C3       0.89702    0.38780    0.24986   1.00
C3a      0.91794    0.37825    0.08172   1.00
H1       0.95115    0.46754    0.19075   1.00
H1       0.90599    0.47690    0.13625   1.00
H1       0.95170    0.46917    0.26260   1.00
H1       0.90539    0.47501    0.06444   1.00
H1       0.88174    0.36548    0.26618   1.00
C5       0.92277    0.33971    0.06120   1.00
H1       0.92241    0.35225    0.13878   1.00
H1       0.88007    0.36365    0.19441   1.00
H2       0.92104    0.34335    0.02901   1.00
H2       0.95227    0.32802    0.06795   1.00
N1       0.89266    0.31216    0.07375   1.00
C6       0.85394    0.31630    0.06856   1.00
C6       0.89855    0.27793    0.09212   1.00
C6       0.83478    0.28445    0.08398   1.00
C6       0.86316    0.26004    0.09896   1.00
H3       0.84028    0.34110    0.05451   1.00
H3       0.92686    0.26647    0.10016   1.00
H3       0.80362    0.27955    0.08424   1.00
H3       0.85854    0.23228    0.11320   1.00
