data_IRMOF10_SG202_interpen_Ligand8cp_label_e.

_audit_creation_method             'generated by an auxiliary program of Tobunporous'

_symmetry_space_group_name_H-M     'P 1'
_symmetry_Int_Tables_number        1
_symmetry_cell_setting             triclinic

_cell_length_a                    34.2800
_cell_length_b                    34.2800
_cell_length_c                    34.2800
_cell_angle_alpha                 90.0000
_cell_angle_beta                  90.0000
_cell_angle_gamma                 90.0000

loop_
_atom_site_label
_atom_site_fract_x
_atom_site_fract_y
_atom_site_fract_z
_atom_site_occupancy
O1       0.75000    0.75000    0.75000   1.00
Zn1      0.71720    0.78280    0.78280   1.00
Zn1      0.78280    0.71720    0.78280   1.00
Zn1      0.78280    0.78280    0.71720   1.00
Zn1      0.71720    0.71720    0.71720   1.00
O2       0.72650    0.77350    0.83820   1.00
O2       0.72650    0.83820    0.77350   1.00
O2       0.66180    0.77350    0.77350   1.00
O2       0.77350    0.72650    0.83820   1.00
O2       0.83820    0.72650    0.77350   1.00
O2       0.77350    0.66180    0.77350   1.00
O2       0.77350    0.83820    0.72650   1.00
O2       0.83820    0.77350    0.72650   1.00
O2       0.77350    0.77350    0.66180   1.00
O2       0.66180    0.72650    0.72650   1.00
O2       0.72650    0.66180    0.72650   1.00
O2       0.72650    0.72650    0.66180   1.00
C1       0.75000    0.75000    0.85520   1.00
C1       0.75000    0.85520    0.75000   1.00
C1       0.64480    0.75000    0.75000   1.00
C1       0.85520    0.75000    0.75000   1.00
C1       0.75000    0.64480    0.75000   1.00
C1       0.75000    0.75000    0.64480   1.00
O1       0.25000    0.25000    0.75000   1.00
Zn1      0.21720    0.28280    0.78280   1.00
Zn1      0.28280    0.21720    0.78280   1.00
Zn1      0.28280    0.28280    0.71720   1.00
Zn1      0.21720    0.21720    0.71720   1.00
O2       0.22650    0.27350    0.83820   1.00
O2       0.22650    0.33820    0.77350   1.00
O2       0.16180    0.27350    0.77350   1.00
O2       0.27350    0.22650    0.83820   1.00
O2       0.33820    0.22650    0.77350   1.00
O2       0.27350    0.16180    0.77350   1.00
O2       0.27350    0.33820    0.72650   1.00
O2       0.33820    0.27350    0.72650   1.00
O2       0.27350    0.27350    0.66180   1.00
O2       0.16180    0.22650    0.72650   1.00
O2       0.22650    0.16180    0.72650   1.00
O2       0.22650    0.22650    0.66180   1.00
C1       0.25000    0.25000    0.85520   1.00
C1       0.25000    0.35520    0.75000   1.00
C1       0.14480    0.25000    0.75000   1.00
C1       0.35520    0.25000    0.75000   1.00
C1       0.25000    0.14480    0.75000   1.00
C1       0.25000    0.25000    0.64480   1.00
O1       0.25000    0.75000    0.25000   1.00
Zn1      0.21720    0.78280    0.28280   1.00
Zn1      0.28280    0.71720    0.28280   1.00
Zn1      0.28280    0.78280    0.21720   1.00
Zn1      0.21720    0.71720    0.21720   1.00
O2       0.22650    0.77350    0.33820   1.00
O2       0.22650    0.83820    0.27350   1.00
O2       0.16180    0.77350    0.27350   1.00
O2       0.27350    0.72650    0.33820   1.00
O2       0.33820    0.72650    0.27350   1.00
O2       0.27350    0.66180    0.27350   1.00
O2       0.27350    0.83820    0.22650   1.00
O2       0.33820    0.77350    0.22650   1.00
O2       0.27350    0.77350    0.16180   1.00
O2       0.16180    0.72650    0.22650   1.00
O2       0.22650    0.66180    0.22650   1.00
O2       0.22650    0.72650    0.16180   1.00
C1       0.25000    0.75000    0.35520   1.00
C1       0.25000    0.85520    0.25000   1.00
C1       0.14480    0.75000    0.25000   1.00
C1       0.35520    0.75000    0.25000   1.00
C1       0.25000    0.64480    0.25000   1.00
C1       0.25000    0.75000    0.14480   1.00
O1       0.75000    0.25000    0.25000   1.00
Zn1      0.71720    0.28280    0.28280   1.00
Zn1      0.78280    0.21720    0.28280   1.00
Zn1      0.78280    0.28280    0.21720   1.00
Zn1      0.71720    0.21720    0.21720   1.00
O2       0.72650    0.27350    0.33820   1.00
O2       0.72650    0.33820    0.27350   1.00
O2       0.66180    0.27350    0.27350   1.00
O2       0.77350    0.22650    0.33820   1.00
O2       0.83820    0.22650    0.27350   1.00
O2       0.77350    0.16180    0.27350   1.00
O2       0.77350    0.33820    0.22650   1.00
O2       0.83820    0.27350    0.22650   1.00
O2       0.77350    0.27350    0.16180   1.00
O2       0.66180    0.22650    0.22650   1.00
O2       0.72650    0.16180    0.22650   1.00
O2       0.72650    0.22650    0.16180   1.00
C1       0.75000    0.25000    0.35520   1.00
C1       0.75000    0.35520    0.25000   1.00
C1       0.64480    0.25000    0.25000   1.00
C1       0.85520    0.25000    0.25000   1.00
C1       0.75000    0.14480    0.25000   1.00
C1       0.75000    0.25000    0.14480   1.00
O1       0.25000    0.25000    0.25000   1.00
Zn1      0.28280    0.21720    0.21720   1.00
Zn1      0.21720    0.28280    0.21720   1.00
Zn1      0.21720    0.21720    0.28280   1.00
Zn1      0.28280    0.28280    0.28280   1.00
O2       0.27350    0.22650    0.16180   1.00
O2       0.27350    0.16180    0.22650   1.00
O2       0.33820    0.22650    0.22650   1.00
O2       0.22650    0.27350    0.16180   1.00
O2       0.16180    0.27350    0.22650   1.00
O2       0.22650    0.33820    0.22650   1.00
O2       0.22650    0.16180    0.27350   1.00
O2       0.16180    0.22650    0.27350   1.00
O2       0.22650    0.22650    0.33820   1.00
O2       0.33820    0.27350    0.27350   1.00
O2       0.27350    0.33820    0.27350   1.00
O2       0.27350    0.27350    0.33820   1.00
C1       0.25000    0.25000    0.14480   1.00
C1       0.25000    0.14480    0.25000   1.00
C1       0.35520    0.25000    0.25000   1.00
C1       0.14480    0.25000    0.25000   1.00
C1       0.25000    0.35520    0.25000   1.00
C1       0.25000    0.25000    0.35520   1.00
O1       0.75000    0.75000    0.25000   1.00
Zn1      0.78280    0.71720    0.21720   1.00
Zn1      0.71720    0.78280    0.21720   1.00
Zn1      0.71720    0.71720    0.28280   1.00
Zn1      0.78280    0.78280    0.28280   1.00
O2       0.77350    0.72650    0.16180   1.00
O2       0.77350    0.66180    0.22650   1.00
O2       0.83820    0.72650    0.22650   1.00
O2       0.72650    0.77350    0.16180   1.00
O2       0.66180    0.77350    0.22650   1.00
O2       0.72650    0.83820    0.22650   1.00
O2       0.72650    0.66180    0.27350   1.00
O2       0.66180    0.72650    0.27350   1.00
O2       0.72650    0.72650    0.33820   1.00
O2       0.83820    0.77350    0.27350   1.00
O2       0.77350    0.83820    0.27350   1.00
O2       0.77350    0.77350    0.33820   1.00
C1       0.75000    0.75000    0.14480   1.00
C1       0.75000    0.64480    0.25000   1.00
C1       0.85520    0.75000    0.25000   1.00
C1       0.64480    0.75000    0.25000   1.00
C1       0.75000    0.85520    0.25000   1.00
C1       0.75000    0.75000    0.35520   1.00
O1       0.75000    0.25000    0.75000   1.00
Zn1      0.78280    0.21720    0.71720   1.00
Zn1      0.71720    0.28280    0.71720   1.00
Zn1      0.71720    0.21720    0.78280   1.00
Zn1      0.78280    0.28280    0.78280   1.00
O2       0.77350    0.22650    0.66180   1.00
O2       0.77350    0.16180    0.72650   1.00
O2       0.83820    0.22650    0.72650   1.00
O2       0.72650    0.27350    0.66180   1.00
O2       0.66180    0.27350    0.72650   1.00
O2       0.72650    0.33820    0.72650   1.00
O2       0.72650    0.16180    0.77350   1.00
O2       0.66180    0.22650    0.77350   1.00
O2       0.72650    0.22650    0.83820   1.00
O2       0.83820    0.27350    0.77350   1.00
O2       0.77350    0.33820    0.77350   1.00
O2       0.77350    0.27350    0.83820   1.00
C1       0.75000    0.25000    0.64480   1.00
C1       0.75000    0.14480    0.75000   1.00
C1       0.85520    0.25000    0.75000   1.00
C1       0.64480    0.25000    0.75000   1.00
C1       0.75000    0.35520    0.75000   1.00
C1       0.75000    0.25000    0.85520   1.00
O1       0.25000    0.75000    0.75000   1.00
Zn1      0.28280    0.71720    0.71720   1.00
Zn1      0.21720    0.78280    0.71720   1.00
Zn1      0.21720    0.71720    0.78280   1.00
Zn1      0.28280    0.78280    0.78280   1.00
O2       0.27350    0.72650    0.66180   1.00
O2       0.27350    0.66180    0.72650   1.00
O2       0.33820    0.72650    0.72650   1.00
O2       0.22650    0.77350    0.66180   1.00
O2       0.16180    0.77350    0.72650   1.00
O2       0.22650    0.83820    0.72650   1.00
O2       0.22650    0.66180    0.77350   1.00
O2       0.16180    0.72650    0.77350   1.00
O2       0.22650    0.72650    0.83820   1.00
O2       0.33820    0.77350    0.77350   1.00
O2       0.27350    0.83820    0.77350   1.00
O2       0.27350    0.77350    0.83820   1.00
C1       0.25000    0.75000    0.64480   1.00
C1       0.25000    0.64480    0.75000   1.00
C1       0.35520    0.75000    0.75000   1.00
C1       0.14480    0.75000    0.75000   1.00
C1       0.25000    0.85520    0.75000   1.00
C1       0.25000    0.75000    0.85520   1.00
O1       0.91500    0.91500    0.91500   1.00
Zn1      0.88220    0.94780    0.94780   1.00
Zn1      0.94780    0.88220    0.94780   1.00
Zn1      0.94780    0.94780    0.88220   1.00
Zn1      0.88220    0.88220    0.88220   1.00
O2       0.89150    0.93850    1.00320   1.00
O2       0.89150    1.00320    0.93850   1.00
O2       0.82680    0.93850    0.93850   1.00
O2       0.93850    0.89150    1.00320   1.00
O2       1.00320    0.89150    0.93850   1.00
O2       0.93850    0.82680    0.93850   1.00
O2       0.93850    1.00320    0.89150   1.00
O2       1.00320    0.93850    0.89150   1.00
O2       0.93850    0.93850    0.82680   1.00
O2       0.82680    0.89150    0.89150   1.00
O2       0.89150    0.82680    0.89150   1.00
O2       0.89150    0.89150    0.82680   1.00
C1       0.91500    0.91500    1.02020   1.00
C1       0.91500    1.02020    0.91500   1.00
C1       0.80980    0.91500    0.91500   1.00
C1       1.02020    0.91500    0.91500   1.00
C1       0.91500    0.80980    0.91500   1.00
C1       0.91500    0.91500    0.80980   1.00
O1       0.41500    0.41500    0.91500   1.00
Zn1      0.38220    0.44780    0.94780   1.00
Zn1      0.44780    0.38220    0.94780   1.00
Zn1      0.44780    0.44780    0.88220   1.00
Zn1      0.38220    0.38220    0.88220   1.00
O2       0.39150    0.43850    1.00320   1.00
O2       0.39150    0.50320    0.93850   1.00
O2       0.32680    0.43850    0.93850   1.00
O2       0.43850    0.39150    1.00320   1.00
O2       0.50320    0.39150    0.93850   1.00
O2       0.43850    0.32680    0.93850   1.00
O2       0.43850    0.50320    0.89150   1.00
O2       0.50320    0.43850    0.89150   1.00
O2       0.43850    0.43850    0.82680   1.00
O2       0.32680    0.39150    0.89150   1.00
O2       0.39150    0.32680    0.89150   1.00
O2       0.39150    0.39150    0.82680   1.00
C1       0.41500    0.41500    1.02020   1.00
C1       0.41500    0.52020    0.91500   1.00
C1       0.30980    0.41500    0.91500   1.00
C1       0.52020    0.41500    0.91500   1.00
C1       0.41500    0.30980    0.91500   1.00
C1       0.41500    0.41500    0.80980   1.00
O1       0.41500    0.91500    0.41500   1.00
Zn1      0.38220    0.94780    0.44780   1.00
Zn1      0.44780    0.88220    0.44780   1.00
Zn1      0.44780    0.94780    0.38220   1.00
Zn1      0.38220    0.88220    0.38220   1.00
O2       0.39150    0.93850    0.50320   1.00
O2       0.39150    1.00320    0.43850   1.00
O2       0.32680    0.93850    0.43850   1.00
O2       0.43850    0.89150    0.50320   1.00
O2       0.50320    0.89150    0.43850   1.00
O2       0.43850    0.82680    0.43850   1.00
O2       0.43850    1.00320    0.39150   1.00
O2       0.50320    0.93850    0.39150   1.00
O2       0.43850    0.93850    0.32680   1.00
O2       0.32680    0.89150    0.39150   1.00
O2       0.39150    0.82680    0.39150   1.00
O2       0.39150    0.89150    0.32680   1.00
C1       0.41500    0.91500    0.52020   1.00
C1       0.41500    1.02020    0.41500   1.00
C1       0.30980    0.91500    0.41500   1.00
C1       0.52020    0.91500    0.41500   1.00
C1       0.41500    0.80980    0.41500   1.00
C1       0.41500    0.91500    0.30980   1.00
O1       0.91500    0.41500    0.41500   1.00
Zn1      0.88220    0.44780    0.44780   1.00
Zn1      0.94780    0.38220    0.44780   1.00
Zn1      0.94780    0.44780    0.38220   1.00
Zn1      0.88220    0.38220    0.38220   1.00
O2       0.89150    0.43850    0.50320   1.00
O2       0.89150    0.50320    0.43850   1.00
O2       0.82680    0.43850    0.43850   1.00
O2       0.93850    0.39150    0.50320   1.00
O2       1.00320    0.39150    0.43850   1.00
O2       0.93850    0.32680    0.43850   1.00
O2       0.93850    0.50320    0.39150   1.00
O2       1.00320    0.43850    0.39150   1.00
O2       0.93850    0.43850    0.32680   1.00
O2       0.82680    0.39150    0.39150   1.00
O2       0.89150    0.32680    0.39150   1.00
O2       0.89150    0.39150    0.32680   1.00
C1       0.91500    0.41500    0.52020   1.00
C1       0.91500    0.52020    0.41500   1.00
C1       0.80980    0.41500    0.41500   1.00
C1       1.02020    0.41500    0.41500   1.00
C1       0.91500    0.30980    0.41500   1.00
C1       0.91500    0.41500    0.30980   1.00
O1       0.41500    0.41500    0.41500   1.00
Zn1      0.44780    0.38220    0.38220   1.00
Zn1      0.38220    0.44780    0.38220   1.00
Zn1      0.38220    0.38220    0.44780   1.00
Zn1      0.44780    0.44780    0.44780   1.00
O2       0.43850    0.39150    0.32680   1.00
O2       0.43850    0.32680    0.39150   1.00
O2       0.50320    0.39150    0.39150   1.00
O2       0.39150    0.43850    0.32680   1.00
O2       0.32680    0.43850    0.39150   1.00
O2       0.39150    0.50320    0.39150   1.00
O2       0.39150    0.32680    0.43850   1.00
O2       0.32680    0.39150    0.43850   1.00
O2       0.39150    0.39150    0.50320   1.00
O2       0.50320    0.43850    0.43850   1.00
O2       0.43850    0.50320    0.43850   1.00
O2       0.43850    0.43850    0.50320   1.00
C1       0.41500    0.41500    0.30980   1.00
C1       0.41500    0.30980    0.41500   1.00
C1       0.52020    0.41500    0.41500   1.00
C1       0.30980    0.41500    0.41500   1.00
C1       0.41500    0.52020    0.41500   1.00
C1       0.41500    0.41500    0.52020   1.00
O1       0.91500    0.91500    0.41500   1.00
Zn1      0.94780    0.88220    0.38220   1.00
Zn1      0.88220    0.94780    0.38220   1.00
Zn1      0.88220    0.88220    0.44780   1.00
Zn1      0.94780    0.94780    0.44780   1.00
O2       0.93850    0.89150    0.32680   1.00
O2       0.93850    0.82680    0.39150   1.00
O2       1.00320    0.89150    0.39150   1.00
O2       0.89150    0.93850    0.32680   1.00
O2       0.82680    0.93850    0.39150   1.00
O2       0.89150    1.00320    0.39150   1.00
O2       0.89150    0.82680    0.43850   1.00
O2       0.82680    0.89150    0.43850   1.00
O2       0.89150    0.89150    0.50320   1.00
O2       1.00320    0.93850    0.43850   1.00
O2       0.93850    1.00320    0.43850   1.00
O2       0.93850    0.93850    0.50320   1.00
C1       0.91500    0.91500    0.30980   1.00
C1       0.91500    0.80980    0.41500   1.00
C1       1.02020    0.91500    0.41500   1.00
C1       0.80980    0.91500    0.41500   1.00
C1       0.91500    1.02020    0.41500   1.00
C1       0.91500    0.91500    0.52020   1.00
O1       0.91500    0.41500    0.91500   1.00
Zn1      0.94780    0.38220    0.88220   1.00
Zn1      0.88220    0.44780    0.88220   1.00
Zn1      0.88220    0.38220    0.94780   1.00
Zn1      0.94780    0.44780    0.94780   1.00
O2       0.93850    0.39150    0.82680   1.00
O2       0.93850    0.32680    0.89150   1.00
O2       1.00320    0.39150    0.89150   1.00
O2       0.89150    0.43850    0.82680   1.00
O2       0.82680    0.43850    0.89150   1.00
O2       0.89150    0.50320    0.89150   1.00
O2       0.89150    0.32680    0.93850   1.00
O2       0.82680    0.39150    0.93850   1.00
O2       0.89150    0.39150    1.00320   1.00
O2       1.00320    0.43850    0.93850   1.00
O2       0.93850    0.50320    0.93850   1.00
O2       0.93850    0.43850    1.00320   1.00
C1       0.91500    0.41500    0.80980   1.00
C1       0.91500    0.30980    0.91500   1.00
C1       1.02020    0.41500    0.91500   1.00
C1       0.80980    0.41500    0.91500   1.00
C1       0.91500    0.52020    0.91500   1.00
C1       0.91500    0.41500    1.02020   1.00
O1       0.41500    0.91500    0.91500   1.00
Zn1      0.44780    0.88220    0.88220   1.00
Zn1      0.38220    0.94780    0.88220   1.00
Zn1      0.38220    0.88220    0.94780   1.00
Zn1      0.44780    0.94780    0.94780   1.00
O2       0.43850    0.89150    0.82680   1.00
O2       0.43850    0.82680    0.89150   1.00
O2       0.50320    0.89150    0.89150   1.00
O2       0.39150    0.93850    0.82680   1.00
O2       0.32680    0.93850    0.89150   1.00
O2       0.39150    1.00320    0.89150   1.00
O2       0.39150    0.82680    0.93850   1.00
O2       0.32680    0.89150    0.93850   1.00
O2       0.39150    0.89150    1.00320   1.00
O2       0.50320    0.93850    0.93850   1.00
O2       0.43850    1.00320    0.93850   1.00
O2       0.43850    0.93850    1.00320   1.00
C1       0.41500    0.91500    0.80980   1.00
C1       0.41500    0.80980    0.91500   1.00
C1       0.52020    0.91500    0.91500   1.00
C1       0.30980    0.91500    0.91500   1.00
C1       0.41500    1.02020    0.91500   1.00
C1       0.41500    0.91500    1.02020   1.00
C4       0.75007    0.75007    0.97915   1.00
C4       0.74993    0.74993    1.02085   1.00
C3       0.74941    0.78485    0.95708   1.00
C3       0.78448    0.74321    1.04225   1.00
C3       0.75092    0.71460    0.95816   1.00
C3a      0.71511    0.75708    1.04263   1.00
C2       0.74971    0.74852    0.89483   1.00
C2       0.75059    0.75135    1.10517   1.00
C3       0.74922    0.78402    0.91566   1.00
C3       0.78474    0.74394    1.08359   1.00
C3       0.75057    0.71386    0.91680   1.00
C3       0.71602    0.75780    1.08415   1.00
H1       0.74902    0.81273    0.97192   1.00
H1       0.81152    0.73765    1.02685   1.00
H1       0.74863    0.81125    0.89968   1.00
H1       0.81186    0.73875    1.09895   1.00
H1       0.75069    0.68606    0.90179   1.00
H1       0.68947    0.76311    1.10043   1.00
C5       0.67632    0.76324    1.02239   1.00
H1       0.75081    0.68727    0.97401   1.00
H2       0.65344    0.77224    1.04354   1.00
H2       0.67911    0.78747    1.00103   1.00
N1       0.66359    0.72742    1.00292   1.00
C6       0.65697    0.69272    1.02012   1.00
C6       0.65598    0.72327    0.96460   1.00
C6       0.64535    0.66595    0.99243   1.00
C6       0.64474    0.68538    0.95711   1.00
H3       0.66060    0.68702    1.05099   1.00
H3       0.65888    0.74624    0.94309   1.00
H3       0.63810    0.63565    0.99741   1.00
H3       0.63700    0.67327    0.92903   1.00
C4       0.75007    0.97915    0.75007   1.00
C4       0.74993    1.02085    0.74993   1.00
C3       0.78485    0.95708    0.74941   1.00
C3       0.74321    1.04225    0.78448   1.00
C3       0.71460    0.95816    0.75092   1.00
C3a      0.75708    1.04263    0.71511   1.00
C2       0.74852    0.89483    0.74971   1.00
C2       0.75135    1.10517    0.75059   1.00
C3       0.78402    0.91566    0.74922   1.00
C3       0.74394    1.08359    0.78474   1.00
C3       0.71386    0.91680    0.75057   1.00
C3       0.75780    1.08415    0.71602   1.00
H1       0.81273    0.97192    0.74902   1.00
H1       0.73765    1.02685    0.81152   1.00
H1       0.81125    0.89968    0.74863   1.00
H1       0.73875    1.09895    0.81186   1.00
H1       0.68606    0.90179    0.75069   1.00
H1       0.76311    1.10043    0.68947   1.00
C5       0.76324    1.02239    0.67632   1.00
H1       0.68727    0.97401    0.75081   1.00
H2       0.77224    1.04354    0.65344   1.00
H2       0.78747    1.00103    0.67911   1.00
N1       0.72742    1.00292    0.66359   1.00
C6       0.69272    1.02012    0.65697   1.00
C6       0.72327    0.96460    0.65598   1.00
C6       0.66595    0.99243    0.64535   1.00
C6       0.68538    0.95711    0.64474   1.00
H3       0.68702    1.05099    0.66060   1.00
H3       0.74624    0.94309    0.65888   1.00
H3       0.63565    0.99741    0.63810   1.00
H3       0.67327    0.92903    0.63700   1.00
C4       0.52085    0.75007    0.74993   1.00
C4       0.47915    0.74993    0.75007   1.00
C3       0.54292    0.74941    0.71515   1.00
C3       0.45775    0.78448    0.75679   1.00
C3       0.54184    0.75092    0.78540   1.00
C3a      0.45737    0.71511    0.74292   1.00
C2       0.60517    0.74971    0.75148   1.00
C2       0.39483    0.75059    0.74865   1.00
C3       0.58434    0.74922    0.71598   1.00
C3       0.41641    0.78474    0.75606   1.00
C3       0.58320    0.75057    0.78614   1.00
C3       0.41585    0.71602    0.74220   1.00
H1       0.52808    0.74902    0.68727   1.00
H1       0.47315    0.81152    0.76235   1.00
H1       0.60032    0.74863    0.68875   1.00
H1       0.40105    0.81186    0.76125   1.00
H1       0.59821    0.75069    0.81394   1.00
H1       0.39957    0.68947    0.73689   1.00
C5       0.47761    0.67632    0.73676   1.00
H1       0.52599    0.75081    0.81273   1.00
H2       0.45646    0.65344    0.72776   1.00
H2       0.49897    0.67911    0.71253   1.00
N1       0.49708    0.66359    0.77258   1.00
C6       0.47988    0.65697    0.80728   1.00
C6       0.53540    0.65598    0.77673   1.00
C6       0.50757    0.64535    0.83405   1.00
C6       0.54289    0.64474    0.81462   1.00
H3       0.44901    0.66060    0.81298   1.00
H3       0.55691    0.65888    0.75376   1.00
H3       0.50259    0.63810    0.86435   1.00
H3       0.57097    0.63700    0.82673   1.00
C4       0.97915    0.75007    0.75007   1.00
C4       1.02085    0.74993    0.74993   1.00
C3       0.95708    0.74941    0.78485   1.00
C3       1.04225    0.78448    0.74321   1.00
C3       0.95816    0.75092    0.71460   1.00
C3a      1.04263    0.71511    0.75708   1.00
C2       0.89483    0.74971    0.74852   1.00
C2       1.10517    0.75059    0.75135   1.00
C3       0.91566    0.74922    0.78402   1.00
C3       1.08359    0.78474    0.74394   1.00
C3       0.91680    0.75057    0.71386   1.00
C3       1.08415    0.71602    0.75780   1.00
H1       0.97192    0.74902    0.81273   1.00
H1       1.02685    0.81152    0.73765   1.00
H1       0.89968    0.74863    0.81125   1.00
H1       1.09895    0.81186    0.73875   1.00
H1       0.90179    0.75069    0.68606   1.00
H1       1.10043    0.68947    0.76311   1.00
C5       1.02239    0.67632    0.76324   1.00
H1       0.97401    0.75081    0.68727   1.00
H2       1.04354    0.65344    0.77224   1.00
H2       1.00103    0.67911    0.78747   1.00
N1       1.00292    0.66359    0.72742   1.00
C6       1.02012    0.65697    0.69272   1.00
C6       0.96460    0.65598    0.72327   1.00
C6       0.99243    0.64535    0.66595   1.00
C6       0.95711    0.64474    0.68538   1.00
H3       1.05099    0.66060    0.68702   1.00
H3       0.94309    0.65888    0.74624   1.00
H3       0.99741    0.63810    0.63565   1.00
H3       0.92903    0.63700    0.67327   1.00
C4       0.74993    0.52085    0.75007   1.00
C4       0.75007    0.47915    0.74993   1.00
C3       0.71515    0.54292    0.74941   1.00
C3       0.75679    0.45775    0.78448   1.00
C3       0.78540    0.54184    0.75092   1.00
C3a      0.74292    0.45737    0.71511   1.00
C2       0.75148    0.60517    0.74971   1.00
C2       0.74865    0.39483    0.75059   1.00
C3       0.71598    0.58434    0.74922   1.00
C3       0.75606    0.41641    0.78474   1.00
C3       0.78614    0.58320    0.75057   1.00
C3       0.74220    0.41585    0.71602   1.00
H1       0.68727    0.52808    0.74902   1.00
H1       0.76235    0.47315    0.81152   1.00
H1       0.68875    0.60032    0.74863   1.00
H1       0.76125    0.40105    0.81186   1.00
H1       0.81394    0.59821    0.75069   1.00
H1       0.73689    0.39957    0.68947   1.00
C5       0.73676    0.47761    0.67632   1.00
H1       0.81273    0.52599    0.75081   1.00
H2       0.72776    0.45646    0.65344   1.00
H2       0.71253    0.49897    0.67911   1.00
N1       0.77258    0.49708    0.66359   1.00
C6       0.80728    0.47988    0.65697   1.00
C6       0.77673    0.53540    0.65598   1.00
C6       0.83405    0.50757    0.64535   1.00
C6       0.81462    0.54289    0.64474   1.00
H3       0.81298    0.44901    0.66060   1.00
H3       0.75376    0.55691    0.65888   1.00
H3       0.86435    0.50259    0.63810   1.00
H3       0.82673    0.57097    0.63700   1.00
C4       0.75007    0.74993    0.52085   1.00
C4       0.74993    0.75007    0.47915   1.00
C3       0.74941    0.71515    0.54292   1.00
C3       0.78448    0.75679    0.45775   1.00
C3       0.75092    0.78540    0.54184   1.00
C3a      0.71511    0.74292    0.45737   1.00
C2       0.74971    0.75148    0.60517   1.00
C2       0.75059    0.74865    0.39483   1.00
C3       0.74922    0.71598    0.58434   1.00
C3       0.78474    0.75606    0.41641   1.00
C3       0.75057    0.78614    0.58320   1.00
C3       0.71602    0.74220    0.41585   1.00
H1       0.74902    0.68727    0.52808   1.00
H1       0.81152    0.76235    0.47315   1.00
H1       0.74863    0.68875    0.60032   1.00
H1       0.81186    0.76125    0.40105   1.00
H1       0.75069    0.81394    0.59821   1.00
H1       0.68947    0.73689    0.39957   1.00
C5       0.67632    0.73676    0.47761   1.00
H1       0.75081    0.81273    0.52599   1.00
H2       0.65344    0.72776    0.45646   1.00
H2       0.67911    0.71253    0.49897   1.00
N1       0.66359    0.77258    0.49708   1.00
C6       0.65697    0.80728    0.47988   1.00
C6       0.65598    0.77673    0.53540   1.00
C6       0.64535    0.83405    0.50757   1.00
C6       0.64474    0.81462    0.54289   1.00
H3       0.66060    0.81298    0.44901   1.00
H3       0.65888    0.75376    0.55691   1.00
H3       0.63810    0.86435    0.50259   1.00
H3       0.63700    0.82673    0.57097   1.00
C4       0.25007    0.25007    0.97915   1.00
C4       0.24993    0.24993    1.02085   1.00
C3       0.24941    0.28485    0.95708   1.00
C3       0.28448    0.24321    1.04225   1.00
C3       0.25092    0.21460    0.95816   1.00
C3a      0.21511    0.25708    1.04263   1.00
C2       0.24971    0.24852    0.89483   1.00
C2       0.25059    0.25135    1.10517   1.00
C3       0.24922    0.28402    0.91566   1.00
C3       0.28474    0.24394    1.08359   1.00
C3       0.25057    0.21386    0.91680   1.00
C3       0.21602    0.25780    1.08415   1.00
H1       0.24902    0.31273    0.97192   1.00
H1       0.31152    0.23765    1.02685   1.00
H1       0.24863    0.31125    0.89968   1.00
H1       0.31186    0.23875    1.09895   1.00
H1       0.25069    0.18606    0.90179   1.00
H1       0.18947    0.26311    1.10043   1.00
C5       0.17632    0.26324    1.02239   1.00
H1       0.25081    0.18727    0.97401   1.00
H2       0.15344    0.27224    1.04354   1.00
H2       0.17911    0.28747    1.00103   1.00
N1       0.16359    0.22742    1.00292   1.00
C6       0.15697    0.19272    1.02012   1.00
C6       0.15598    0.22327    0.96460   1.00
C6       0.14535    0.16595    0.99243   1.00
C6       0.14474    0.18538    0.95711   1.00
H3       0.16060    0.18702    1.05099   1.00
H3       0.15888    0.24624    0.94309   1.00
H3       0.13810    0.13565    0.99741   1.00
H3       0.13700    0.17327    0.92903   1.00
C4       0.25007    0.47915    0.75007   1.00
C4       0.24993    0.52085    0.74993   1.00
C3       0.28485    0.45708    0.74941   1.00
C3       0.24321    0.54225    0.78448   1.00
C3       0.21460    0.45816    0.75092   1.00
C3a      0.25708    0.54263    0.71511   1.00
C2       0.24852    0.39483    0.74971   1.00
C2       0.25135    0.60517    0.75059   1.00
C3       0.28402    0.41566    0.74922   1.00
C3       0.24394    0.58359    0.78474   1.00
C3       0.21386    0.41680    0.75057   1.00
C3       0.25780    0.58415    0.71602   1.00
H1       0.31273    0.47192    0.74902   1.00
H1       0.23765    0.52685    0.81152   1.00
H1       0.31125    0.39968    0.74863   1.00
H1       0.23875    0.59895    0.81186   1.00
H1       0.18606    0.40179    0.75069   1.00
H1       0.26311    0.60043    0.68947   1.00
C5       0.26324    0.52239    0.67632   1.00
H1       0.18727    0.47401    0.75081   1.00
H2       0.27224    0.54354    0.65344   1.00
H2       0.28747    0.50103    0.67911   1.00
N1       0.22742    0.50292    0.66359   1.00
C6       0.19272    0.52012    0.65697   1.00
C6       0.22327    0.46460    0.65598   1.00
C6       0.16595    0.49243    0.64535   1.00
C6       0.18538    0.45711    0.64474   1.00
H3       0.18702    0.55099    0.66060   1.00
H3       0.24624    0.44309    0.65888   1.00
H3       0.13565    0.49741    0.63810   1.00
H3       0.17327    0.42903    0.63700   1.00
C4       0.02085    0.25007    0.74993   1.00
C4       -0.02085   0.24993    0.75007   1.00
C3       0.04292    0.24941    0.71515   1.00
C3       -0.04225   0.28448    0.75679   1.00
C3       0.04184    0.25092    0.78540   1.00
C3a      -0.04263   0.21511    0.74292   1.00
C2       0.10517    0.24971    0.75148   1.00
C2       -0.10517   0.25059    0.74865   1.00
C3       0.08434    0.24922    0.71598   1.00
C3       -0.08359   0.28474    0.75606   1.00
C3       0.08320    0.25057    0.78614   1.00
C3       -0.08415   0.21602    0.74220   1.00
H1       0.02808    0.24902    0.68727   1.00
H1       -0.02685   0.31152    0.76235   1.00
H1       0.10032    0.24863    0.68875   1.00
H1       -0.09895   0.31186    0.76125   1.00
H1       0.09821    0.25069    0.81394   1.00
H1       -0.10043   0.18947    0.73689   1.00
C5       -0.02239   0.17632    0.73676   1.00
H1       0.02599    0.25081    0.81273   1.00
H2       -0.04354   0.15344    0.72776   1.00
H2       -0.00103   0.17911    0.71253   1.00
N1       -0.00292   0.16359    0.77258   1.00
C6       -0.02012   0.15697    0.80728   1.00
C6       0.03540    0.15598    0.77673   1.00
C6       0.00757    0.14535    0.83405   1.00
C6       0.04289    0.14474    0.81462   1.00
H3       -0.05099   0.16060    0.81298   1.00
H3       0.05691    0.15888    0.75376   1.00
H3       0.00259    0.13810    0.86435   1.00
H3       0.07097    0.13700    0.82673   1.00
C4       0.47915    0.25007    0.75007   1.00
C4       0.52085    0.24993    0.74993   1.00
C3       0.45708    0.24941    0.78485   1.00
C3       0.54225    0.28448    0.74321   1.00
C3       0.45816    0.25092    0.71460   1.00
C3a      0.54263    0.21511    0.75708   1.00
C2       0.39483    0.24971    0.74852   1.00
C2       0.60517    0.25059    0.75135   1.00
C3       0.41566    0.24922    0.78402   1.00
C3       0.58359    0.28474    0.74394   1.00
C3       0.41680    0.25057    0.71386   1.00
C3       0.58415    0.21602    0.75780   1.00
H1       0.47192    0.24902    0.81273   1.00
H1       0.52685    0.31152    0.73765   1.00
H1       0.39968    0.24863    0.81125   1.00
H1       0.59895    0.31186    0.73875   1.00
H1       0.40179    0.25069    0.68606   1.00
H1       0.60043    0.18947    0.76311   1.00
C5       0.52239    0.17632    0.76324   1.00
H1       0.47401    0.25081    0.68727   1.00
H2       0.54354    0.15344    0.77224   1.00
H2       0.50103    0.17911    0.78747   1.00
N1       0.50292    0.16359    0.72742   1.00
C6       0.52012    0.15697    0.69272   1.00
C6       0.46460    0.15598    0.72327   1.00
C6       0.49243    0.14535    0.66595   1.00
C6       0.45711    0.14474    0.68538   1.00
H3       0.55099    0.16060    0.68702   1.00
H3       0.44309    0.15888    0.74624   1.00
H3       0.49741    0.13810    0.63565   1.00
H3       0.42903    0.13700    0.67327   1.00
C4       0.24993    0.02085    0.75007   1.00
C4       0.25007    -0.02085   0.74993   1.00
C3       0.21515    0.04292    0.74941   1.00
C3       0.25679    -0.04225   0.78448   1.00
C3       0.28540    0.04184    0.75092   1.00
C3a      0.24292    -0.04263   0.71511   1.00
C2       0.25148    0.10517    0.74971   1.00
C2       0.24865    -0.10517   0.75059   1.00
C3       0.21598    0.08434    0.74922   1.00
C3       0.25606    -0.08359   0.78474   1.00
C3       0.28614    0.08320    0.75057   1.00
C3       0.24220    -0.08415   0.71602   1.00
H1       0.18727    0.02808    0.74902   1.00
H1       0.26235    -0.02685   0.81152   1.00
H1       0.18875    0.10032    0.74863   1.00
H1       0.26125    -0.09895   0.81186   1.00
H1       0.31394    0.09821    0.75069   1.00
H1       0.23689    -0.10043   0.68947   1.00
C5       0.23676    -0.02239   0.67632   1.00
H1       0.31273    0.02599    0.75081   1.00
H2       0.22776    -0.04354   0.65344   1.00
H2       0.21253    -0.00103   0.67911   1.00
N1       0.27258    -0.00292   0.66359   1.00
C6       0.30728    -0.02012   0.65697   1.00
C6       0.27673    0.03540    0.65598   1.00
C6       0.33405    0.00757    0.64535   1.00
C6       0.31462    0.04289    0.64474   1.00
H3       0.31298    -0.05099   0.66060   1.00
H3       0.25376    0.05691    0.65888   1.00
H3       0.36435    0.00259    0.63810   1.00
H3       0.32673    0.07097    0.63700   1.00
C4       0.25007    0.24993    0.52085   1.00
C4       0.24993    0.25007    0.47915   1.00
C3       0.24941    0.21515    0.54292   1.00
C3       0.28448    0.25679    0.45775   1.00
C3       0.25092    0.28540    0.54184   1.00
C3a      0.21511    0.24292    0.45737   1.00
C2       0.24971    0.25148    0.60517   1.00
C2       0.25059    0.24865    0.39483   1.00
C3       0.24922    0.21598    0.58434   1.00
C3       0.28474    0.25606    0.41641   1.00
C3       0.25057    0.28614    0.58320   1.00
C3       0.21602    0.24220    0.41585   1.00
H1       0.24902    0.18727    0.52808   1.00
H1       0.31152    0.26235    0.47315   1.00
H1       0.24863    0.18875    0.60032   1.00
H1       0.31186    0.26125    0.40105   1.00
H1       0.25069    0.31394    0.59821   1.00
H1       0.18947    0.23689    0.39957   1.00
C5       0.17632    0.23676    0.47761   1.00
H1       0.25081    0.31273    0.52599   1.00
H2       0.15344    0.22776    0.45646   1.00
H2       0.17911    0.21253    0.49897   1.00
N1       0.16359    0.27258    0.49708   1.00
C6       0.15697    0.30728    0.47988   1.00
C6       0.15598    0.27673    0.53540   1.00
C6       0.14535    0.33405    0.50757   1.00
C6       0.14474    0.31462    0.54289   1.00
H3       0.16060    0.31298    0.44901   1.00
H3       0.15888    0.25376    0.55691   1.00
H3       0.13810    0.36435    0.50259   1.00
H3       0.13700    0.32673    0.57097   1.00
C4       0.25007    0.75007    0.47915   1.00
C4       0.24993    0.74993    0.52085   1.00
C3       0.24941    0.78485    0.45708   1.00
C3       0.28448    0.74321    0.54225   1.00
C3       0.25092    0.71460    0.45816   1.00
C3a      0.21511    0.75708    0.54263   1.00
C2       0.24971    0.74852    0.39483   1.00
C2       0.25059    0.75135    0.60517   1.00
C3       0.24922    0.78402    0.41566   1.00
C3       0.28474    0.74394    0.58359   1.00
C3       0.25057    0.71386    0.41680   1.00
C3       0.21602    0.75780    0.58415   1.00
H1       0.24902    0.81273    0.47192   1.00
H1       0.31152    0.73765    0.52685   1.00
H1       0.24863    0.81125    0.39968   1.00
H1       0.31186    0.73875    0.59895   1.00
H1       0.25069    0.68606    0.40179   1.00
H1       0.18947    0.76311    0.60043   1.00
C5       0.17632    0.76324    0.52239   1.00
H1       0.25081    0.68727    0.47401   1.00
H2       0.15344    0.77224    0.54354   1.00
H2       0.17911    0.78747    0.50103   1.00
N1       0.16359    0.72742    0.50292   1.00
C6       0.15697    0.69272    0.52012   1.00
C6       0.15598    0.72327    0.46460   1.00
C6       0.14535    0.66595    0.49243   1.00
C6       0.14474    0.68538    0.45711   1.00
H3       0.16060    0.68702    0.55099   1.00
H3       0.15888    0.74624    0.44309   1.00
H3       0.13810    0.63565    0.49741   1.00
H3       0.13700    0.67327    0.42903   1.00
C4       0.25007    0.97915    0.25007   1.00
C4       0.24993    1.02085    0.24993   1.00
C3       0.28485    0.95708    0.24941   1.00
C3       0.24321    1.04225    0.28448   1.00
C3       0.21460    0.95816    0.25092   1.00
C3a      0.25708    1.04263    0.21511   1.00
C2       0.24852    0.89483    0.24971   1.00
C2       0.25135    1.10517    0.25059   1.00
C3       0.28402    0.91566    0.24922   1.00
C3       0.24394    1.08359    0.28474   1.00
C3       0.21386    0.91680    0.25057   1.00
C3       0.25780    1.08415    0.21602   1.00
H1       0.31273    0.97192    0.24902   1.00
H1       0.23765    1.02685    0.31152   1.00
H1       0.31125    0.89968    0.24863   1.00
H1       0.23875    1.09895    0.31186   1.00
H1       0.18606    0.90179    0.25069   1.00
H1       0.26311    1.10043    0.18947   1.00
C5       0.26324    1.02239    0.17632   1.00
H1       0.18727    0.97401    0.25081   1.00
H2       0.27224    1.04354    0.15344   1.00
H2       0.28747    1.00103    0.17911   1.00
N1       0.22742    1.00292    0.16359   1.00
C6       0.19272    1.02012    0.15697   1.00
C6       0.22327    0.96460    0.15598   1.00
C6       0.16595    0.99243    0.14535   1.00
C6       0.18538    0.95711    0.14474   1.00
H3       0.18702    1.05099    0.16060   1.00
H3       0.24624    0.94309    0.15888   1.00
H3       0.13565    0.99741    0.13810   1.00
H3       0.17327    0.92903    0.13700   1.00
C4       0.02085    0.75007    0.24993   1.00
C4       -0.02085   0.74993    0.25007   1.00
C3       0.04292    0.74941    0.21515   1.00
C3       -0.04225   0.78448    0.25679   1.00
C3       0.04184    0.75092    0.28540   1.00
C3a      -0.04263   0.71511    0.24292   1.00
C2       0.10517    0.74971    0.25148   1.00
C2       -0.10517   0.75059    0.24865   1.00
C3       0.08434    0.74922    0.21598   1.00
C3       -0.08359   0.78474    0.25606   1.00
C3       0.08320    0.75057    0.28614   1.00
C3       -0.08415   0.71602    0.24220   1.00
H1       0.02808    0.74902    0.18727   1.00
H1       -0.02685   0.81152    0.26235   1.00
H1       0.10032    0.74863    0.18875   1.00
H1       -0.09895   0.81186    0.26125   1.00
H1       0.09821    0.75069    0.31394   1.00
H1       -0.10043   0.68947    0.23689   1.00
C5       -0.02239   0.67632    0.23676   1.00
H1       0.02599    0.75081    0.31273   1.00
H2       -0.04354   0.65344    0.22776   1.00
H2       -0.00103   0.67911    0.21253   1.00
N1       -0.00292   0.66359    0.27258   1.00
C6       -0.02012   0.65697    0.30728   1.00
C6       0.03540    0.65598    0.27673   1.00
C6       0.00757    0.64535    0.33405   1.00
C6       0.04289    0.64474    0.31462   1.00
H3       -0.05099   0.66060    0.31298   1.00
H3       0.05691    0.65888    0.25376   1.00
H3       0.00259    0.63810    0.36435   1.00
H3       0.07097    0.63700    0.32673   1.00
C4       0.47915    0.75007    0.25007   1.00
C4       0.52085    0.74993    0.24993   1.00
C3       0.45708    0.74941    0.28485   1.00
C3       0.54225    0.78448    0.24321   1.00
C3       0.45816    0.75092    0.21460   1.00
C3a      0.54263    0.71511    0.25708   1.00
C2       0.39483    0.74971    0.24852   1.00
C2       0.60517    0.75059    0.25135   1.00
C3       0.41566    0.74922    0.28402   1.00
C3       0.58359    0.78474    0.24394   1.00
C3       0.41680    0.75057    0.21386   1.00
C3       0.58415    0.71602    0.25780   1.00
H1       0.47192    0.74902    0.31273   1.00
H1       0.52685    0.81152    0.23765   1.00
H1       0.39968    0.74863    0.31125   1.00
H1       0.59895    0.81186    0.23875   1.00
H1       0.40179    0.75069    0.18606   1.00
H1       0.60043    0.68947    0.26311   1.00
C5       0.52239    0.67632    0.26324   1.00
H1       0.47401    0.75081    0.18727   1.00
H2       0.54354    0.65344    0.27224   1.00
H2       0.50103    0.67911    0.28747   1.00
N1       0.50292    0.66359    0.22742   1.00
C6       0.52012    0.65697    0.19272   1.00
C6       0.46460    0.65598    0.22327   1.00
C6       0.49243    0.64535    0.16595   1.00
C6       0.45711    0.64474    0.18538   1.00
H3       0.55099    0.66060    0.18702   1.00
H3       0.44309    0.65888    0.24624   1.00
H3       0.49741    0.63810    0.13565   1.00
H3       0.42903    0.63700    0.17327   1.00
C4       0.24993    0.52085    0.25007   1.00
C4       0.25007    0.47915    0.24993   1.00
C3       0.21515    0.54292    0.24941   1.00
C3       0.25679    0.45775    0.28448   1.00
C3       0.28540    0.54184    0.25092   1.00
C3a      0.24292    0.45737    0.21511   1.00
C2       0.25148    0.60517    0.24971   1.00
C2       0.24865    0.39483    0.25059   1.00
C3       0.21598    0.58434    0.24922   1.00
C3       0.25606    0.41641    0.28474   1.00
C3       0.28614    0.58320    0.25057   1.00
C3       0.24220    0.41585    0.21602   1.00
H1       0.18727    0.52808    0.24902   1.00
H1       0.26235    0.47315    0.31152   1.00
H1       0.18875    0.60032    0.24863   1.00
H1       0.26125    0.40105    0.31186   1.00
H1       0.31394    0.59821    0.25069   1.00
H1       0.23689    0.39957    0.18947   1.00
C5       0.23676    0.47761    0.17632   1.00
H1       0.31273    0.52599    0.25081   1.00
H2       0.22776    0.45646    0.15344   1.00
H2       0.21253    0.49897    0.17911   1.00
N1       0.27258    0.49708    0.16359   1.00
C6       0.30728    0.47988    0.15697   1.00
C6       0.27673    0.53540    0.15598   1.00
C6       0.33405    0.50757    0.14535   1.00
C6       0.31462    0.54289    0.14474   1.00
H3       0.31298    0.44901    0.16060   1.00
H3       0.25376    0.55691    0.15888   1.00
H3       0.36435    0.50259    0.13810   1.00
H3       0.32673    0.57097    0.13700   1.00
C4       0.25007    0.74993    0.02085   1.00
C4       0.24993    0.75007    -0.02085   1.00
C3       0.24941    0.71515    0.04292   1.00
C3       0.28448    0.75679    -0.04225   1.00
C3       0.25092    0.78540    0.04184   1.00
C3a      0.21511    0.74292    -0.04263   1.00
C2       0.24971    0.75148    0.10517   1.00
C2       0.25059    0.74865    -0.10517   1.00
C3       0.24922    0.71598    0.08434   1.00
C3       0.28474    0.75606    -0.08359   1.00
C3       0.25057    0.78614    0.08320   1.00
C3       0.21602    0.74220    -0.08415   1.00
H1       0.24902    0.68727    0.02808   1.00
H1       0.31152    0.76235    -0.02685   1.00
H1       0.24863    0.68875    0.10032   1.00
H1       0.31186    0.76125    -0.09895   1.00
H1       0.25069    0.81394    0.09821   1.00
H1       0.18947    0.73689    -0.10043   1.00
C5       0.17632    0.73676    -0.02239   1.00
H1       0.25081    0.81273    0.02599   1.00
H2       0.15344    0.72776    -0.04354   1.00
H2       0.17911    0.71253    -0.00103   1.00
N1       0.16359    0.77258    -0.00292   1.00
C6       0.15697    0.80728    -0.02012   1.00
C6       0.15598    0.77673    0.03540   1.00
C6       0.14535    0.83405    0.00757   1.00
C6       0.14474    0.81462    0.04289   1.00
H3       0.16060    0.81298    -0.05099   1.00
H3       0.15888    0.75376    0.05691   1.00
H3       0.13810    0.86435    0.00259   1.00
H3       0.13700    0.82673    0.07097   1.00
C4       0.75007    0.25007    0.47915   1.00
C4       0.74993    0.24993    0.52085   1.00
C3       0.74941    0.28485    0.45708   1.00
C3       0.78448    0.24321    0.54225   1.00
C3       0.75092    0.21460    0.45816   1.00
C3a      0.71511    0.25708    0.54263   1.00
C2       0.74971    0.24852    0.39483   1.00
C2       0.75059    0.25135    0.60517   1.00
C3       0.74922    0.28402    0.41566   1.00
C3       0.78474    0.24394    0.58359   1.00
C3       0.75057    0.21386    0.41680   1.00
C3       0.71602    0.25780    0.58415   1.00
H1       0.74902    0.31273    0.47192   1.00
H1       0.81152    0.23765    0.52685   1.00
H1       0.74863    0.31125    0.39968   1.00
H1       0.81186    0.23875    0.59895   1.00
H1       0.75069    0.18606    0.40179   1.00
H1       0.68947    0.26311    0.60043   1.00
C5       0.67632    0.26324    0.52239   1.00
H1       0.75081    0.18727    0.47401   1.00
H2       0.65344    0.27224    0.54354   1.00
H2       0.67911    0.28747    0.50103   1.00
N1       0.66359    0.22742    0.50292   1.00
C6       0.65697    0.19272    0.52012   1.00
C6       0.65598    0.22327    0.46460   1.00
C6       0.64535    0.16595    0.49243   1.00
C6       0.64474    0.18538    0.45711   1.00
H3       0.66060    0.18702    0.55099   1.00
H3       0.65888    0.24624    0.44309   1.00
H3       0.63810    0.13565    0.49741   1.00
H3       0.63700    0.17327    0.42903   1.00
C4       0.75007    0.47915    0.25007   1.00
C4       0.74993    0.52085    0.24993   1.00
C3       0.78485    0.45708    0.24941   1.00
C3       0.74321    0.54225    0.28448   1.00
C3       0.71460    0.45816    0.25092   1.00
C3a      0.75708    0.54263    0.21511   1.00
C2       0.74852    0.39483    0.24971   1.00
C2       0.75135    0.60517    0.25059   1.00
C3       0.78402    0.41566    0.24922   1.00
C3       0.74394    0.58359    0.28474   1.00
C3       0.71386    0.41680    0.25057   1.00
C3       0.75780    0.58415    0.21602   1.00
H1       0.81273    0.47192    0.24902   1.00
H1       0.73765    0.52685    0.31152   1.00
H1       0.81125    0.39968    0.24863   1.00
H1       0.73875    0.59895    0.31186   1.00
H1       0.68606    0.40179    0.25069   1.00
H1       0.76311    0.60043    0.18947   1.00
C5       0.76324    0.52239    0.17632   1.00
H1       0.68727    0.47401    0.25081   1.00
H2       0.77224    0.54354    0.15344   1.00
H2       0.78747    0.50103    0.17911   1.00
N1       0.72742    0.50292    0.16359   1.00
C6       0.69272    0.52012    0.15697   1.00
C6       0.72327    0.46460    0.15598   1.00
C6       0.66595    0.49243    0.14535   1.00
C6       0.68538    0.45711    0.14474   1.00
H3       0.68702    0.55099    0.16060   1.00
H3       0.74624    0.44309    0.15888   1.00
H3       0.63565    0.49741    0.13810   1.00
H3       0.67327    0.42903    0.13700   1.00
C4       0.52085    0.25007    0.24993   1.00
C4       0.47915    0.24993    0.25007   1.00
C3       0.54292    0.24941    0.21515   1.00
C3       0.45775    0.28448    0.25679   1.00
C3       0.54184    0.25092    0.28540   1.00
C3a      0.45737    0.21511    0.24292   1.00
C2       0.60517    0.24971    0.25148   1.00
C2       0.39483    0.25059    0.24865   1.00
C3       0.58434    0.24922    0.21598   1.00
C3       0.41641    0.28474    0.25606   1.00
C3       0.58320    0.25057    0.28614   1.00
C3       0.41585    0.21602    0.24220   1.00
H1       0.52808    0.24902    0.18727   1.00
H1       0.47315    0.31152    0.26235   1.00
H1       0.60032    0.24863    0.18875   1.00
H1       0.40105    0.31186    0.26125   1.00
H1       0.59821    0.25069    0.31394   1.00
H1       0.39957    0.18947    0.23689   1.00
C5       0.47761    0.17632    0.23676   1.00
H1       0.52599    0.25081    0.31273   1.00
H2       0.45646    0.15344    0.22776   1.00
H2       0.49897    0.17911    0.21253   1.00
N1       0.49708    0.16359    0.27258   1.00
C6       0.47988    0.15697    0.30728   1.00
C6       0.53540    0.15598    0.27673   1.00
C6       0.50757    0.14535    0.33405   1.00
C6       0.54289    0.14474    0.31462   1.00
H3       0.44901    0.16060    0.31298   1.00
H3       0.55691    0.15888    0.25376   1.00
H3       0.50259    0.13810    0.36435   1.00
H3       0.57097    0.13700    0.32673   1.00
C4       0.97915    0.25007    0.25007   1.00
C4       1.02085    0.24993    0.24993   1.00
C3       0.95708    0.24941    0.28485   1.00
C3       1.04225    0.28448    0.24321   1.00
C3       0.95816    0.25092    0.21460   1.00
C3a      1.04263    0.21511    0.25708   1.00
C2       0.89483    0.24971    0.24852   1.00
C2       1.10517    0.25059    0.25135   1.00
C3       0.91566    0.24922    0.28402   1.00
C3       1.08359    0.28474    0.24394   1.00
C3       0.91680    0.25057    0.21386   1.00
C3       1.08415    0.21602    0.25780   1.00
H1       0.97192    0.24902    0.31273   1.00
H1       1.02685    0.31152    0.23765   1.00
H1       0.89968    0.24863    0.31125   1.00
H1       1.09895    0.31186    0.23875   1.00
H1       0.90179    0.25069    0.18606   1.00
H1       1.10043    0.18947    0.26311   1.00
C5       1.02239    0.17632    0.26324   1.00
H1       0.97401    0.25081    0.18727   1.00
H2       1.04354    0.15344    0.27224   1.00
H2       1.00103    0.17911    0.28747   1.00
N1       1.00292    0.16359    0.22742   1.00
C6       1.02012    0.15697    0.19272   1.00
C6       0.96460    0.15598    0.22327   1.00
C6       0.99243    0.14535    0.16595   1.00
C6       0.95711    0.14474    0.18538   1.00
H3       1.05099    0.16060    0.18702   1.00
H3       0.94309    0.15888    0.24624   1.00
H3       0.99741    0.13810    0.13565   1.00
H3       0.92903    0.13700    0.17327   1.00
C4       0.74993    0.02085    0.25007   1.00
C4       0.75007    -0.02085   0.24993   1.00
C3       0.71515    0.04292    0.24941   1.00
C3       0.75679    -0.04225   0.28448   1.00
C3       0.78540    0.04184    0.25092   1.00
C3a      0.74292    -0.04263   0.21511   1.00
C2       0.75148    0.10517    0.24971   1.00
C2       0.74865    -0.10517   0.25059   1.00
C3       0.71598    0.08434    0.24922   1.00
C3       0.75606    -0.08359   0.28474   1.00
C3       0.78614    0.08320    0.25057   1.00
C3       0.74220    -0.08415   0.21602   1.00
H1       0.68727    0.02808    0.24902   1.00
H1       0.76235    -0.02685   0.31152   1.00
H1       0.68875    0.10032    0.24863   1.00
H1       0.76125    -0.09895   0.31186   1.00
H1       0.81394    0.09821    0.25069   1.00
H1       0.73689    -0.10043   0.18947   1.00
C5       0.73676    -0.02239   0.17632   1.00
H1       0.81273    0.02599    0.25081   1.00
H2       0.72776    -0.04354   0.15344   1.00
H2       0.71253    -0.00103   0.17911   1.00
N1       0.77258    -0.00292   0.16359   1.00
C6       0.80728    -0.02012   0.15697   1.00
C6       0.77673    0.03540    0.15598   1.00
C6       0.83405    0.00757    0.14535   1.00
C6       0.81462    0.04289    0.14474   1.00
H3       0.81298    -0.05099   0.16060   1.00
H3       0.75376    0.05691    0.15888   1.00
H3       0.86435    0.00259    0.13810   1.00
H3       0.82673    0.07097    0.13700   1.00
C4       0.75007    0.24993    0.02085   1.00
C4       0.74993    0.25007    -0.02085   1.00
C3       0.74941    0.21515    0.04292   1.00
C3       0.78448    0.25679    -0.04225   1.00
C3       0.75092    0.28540    0.04184   1.00
C3a      0.71511    0.24292    -0.04263   1.00
C2       0.74971    0.25148    0.10517   1.00
C2       0.75059    0.24865    -0.10517   1.00
C3       0.74922    0.21598    0.08434   1.00
C3       0.78474    0.25606    -0.08359   1.00
C3       0.75057    0.28614    0.08320   1.00
C3       0.71602    0.24220    -0.08415   1.00
H1       0.74902    0.18727    0.02808   1.00
H1       0.81152    0.26235    -0.02685   1.00
H1       0.74863    0.18875    0.10032   1.00
H1       0.81186    0.26125    -0.09895   1.00
H1       0.75069    0.31394    0.09821   1.00
H1       0.68947    0.23689    -0.10043   1.00
C5       0.67632    0.23676    -0.02239   1.00
H1       0.75081    0.31273    0.02599   1.00
H2       0.65344    0.22776    -0.04354   1.00
H2       0.67911    0.21253    -0.00103   1.00
N1       0.66359    0.27258    -0.00292   1.00
C6       0.65697    0.30728    -0.02012   1.00
C6       0.65598    0.27673    0.03540   1.00
C6       0.64535    0.33405    0.00757   1.00
C6       0.64474    0.31462    0.04289   1.00
H3       0.66060    0.31298    -0.05099   1.00
H3       0.65888    0.25376    0.05691   1.00
H3       0.63810    0.36435    0.00259   1.00
H3       0.63700    0.32673    0.07097   1.00
C4       0.91507    0.91507    1.14415   1.00
C4       0.91493    0.91493    1.18585   1.00
C3       0.91441    0.94985    1.12208   1.00
C3       0.94948    0.90821    1.20725   1.00
C3       0.91592    0.87960    1.12316   1.00
C3a      0.88011    0.92208    1.20763   1.00
C2       0.91471    0.91352    1.05983   1.00
C2       0.91559    0.91635    1.27017   1.00
C3       0.91422    0.94902    1.08066   1.00
C3       0.94974    0.90894    1.24859   1.00
C3       0.91557    0.87886    1.08180   1.00
C3       0.88102    0.92280    1.24915   1.00
H1       0.91402    0.97773    1.13692   1.00
H1       0.97652    0.90265    1.19185   1.00
H1       0.91363    0.97625    1.06468   1.00
H1       0.97686    0.90375    1.26395   1.00
H1       0.91569    0.85106    1.06679   1.00
H1       0.85447    0.92811    1.26543   1.00
C5       0.84132    0.92824    1.18739   1.00
H1       0.91581    0.85227    1.13901   1.00
H2       0.81844    0.93724    1.20854   1.00
H2       0.84411    0.95247    1.16603   1.00
N1       0.82859    0.89242    1.16792   1.00
C6       0.82197    0.85772    1.18512   1.00
C6       0.82098    0.88827    1.12960   1.00
C6       0.81035    0.83095    1.15743   1.00
C6       0.80974    0.85038    1.12211   1.00
H3       0.82560    0.85202    1.21599   1.00
H3       0.82388    0.91124    1.10809   1.00
H3       0.80310    0.80065    1.16241   1.00
H3       0.80200    0.83827    1.09403   1.00
C4       0.91507    1.14415    0.91507   1.00
C4       0.91493    1.18585    0.91493   1.00
C3       0.94985    1.12208    0.91441   1.00
C3       0.90821    1.20725    0.94948   1.00
C3       0.87960    1.12316    0.91592   1.00
C3a      0.92208    1.20763    0.88011   1.00
C2       0.91352    1.05983    0.91471   1.00
C2       0.91635    1.27017    0.91559   1.00
C3       0.94902    1.08066    0.91422   1.00
C3       0.90894    1.24859    0.94974   1.00
C3       0.87886    1.08180    0.91557   1.00
C3       0.92280    1.24915    0.88102   1.00
H1       0.97773    1.13692    0.91402   1.00
H1       0.90265    1.19185    0.97652   1.00
H1       0.97625    1.06468    0.91363   1.00
H1       0.90375    1.26395    0.97686   1.00
H1       0.85106    1.06679    0.91569   1.00
H1       0.92811    1.26543    0.85447   1.00
C5       0.92824    1.18739    0.84132   1.00
H1       0.85227    1.13901    0.91581   1.00
H2       0.93724    1.20854    0.81844   1.00
H2       0.95247    1.16603    0.84411   1.00
N1       0.89242    1.16792    0.82859   1.00
C6       0.85772    1.18512    0.82197   1.00
C6       0.88827    1.12960    0.82098   1.00
C6       0.83095    1.15743    0.81035   1.00
C6       0.85038    1.12211    0.80974   1.00
H3       0.85202    1.21599    0.82560   1.00
H3       0.91124    1.10809    0.82388   1.00
H3       0.80065    1.16241    0.80310   1.00
H3       0.83827    1.09403    0.80200   1.00
C4       0.68585    0.91507    0.91493   1.00
C4       0.64415    0.91493    0.91507   1.00
C3       0.70792    0.91441    0.88015   1.00
C3       0.62275    0.94948    0.92179   1.00
C3       0.70684    0.91592    0.95040   1.00
C3a      0.62237    0.88011    0.90792   1.00
C2       0.77017    0.91471    0.91648   1.00
C2       0.55983    0.91559    0.91365   1.00
C3       0.74934    0.91422    0.88098   1.00
C3       0.58141    0.94974    0.92106   1.00
C3       0.74820    0.91557    0.95114   1.00
C3       0.58085    0.88102    0.90720   1.00
H1       0.69308    0.91402    0.85227   1.00
H1       0.63815    0.97652    0.92735   1.00
H1       0.76532    0.91363    0.85375   1.00
H1       0.56605    0.97686    0.92625   1.00
H1       0.76321    0.91569    0.97894   1.00
H1       0.56457    0.85447    0.90189   1.00
C5       0.64261    0.84132    0.90176   1.00
H1       0.69099    0.91581    0.97773   1.00
H2       0.62146    0.81844    0.89276   1.00
H2       0.66397    0.84411    0.87753   1.00
N1       0.66208    0.82859    0.93758   1.00
C6       0.64488    0.82197    0.97228   1.00
C6       0.70040    0.82098    0.94173   1.00
C6       0.67257    0.81035    0.99905   1.00
C6       0.70789    0.80974    0.97962   1.00
H3       0.61401    0.82560    0.97798   1.00
H3       0.72191    0.82388    0.91876   1.00
H3       0.66759    0.80310    1.02935   1.00
H3       0.73597    0.80200    0.99173   1.00
C4       1.14415    0.91507    0.91507   1.00
C4       1.18585    0.91493    0.91493   1.00
C3       1.12208    0.91441    0.94985   1.00
C3       1.20725    0.94948    0.90821   1.00
C3       1.12316    0.91592    0.87960   1.00
C3a      1.20763    0.88011    0.92208   1.00
C2       1.05983    0.91471    0.91352   1.00
C2       1.27017    0.91559    0.91635   1.00
C3       1.08066    0.91422    0.94902   1.00
C3       1.24859    0.94974    0.90894   1.00
C3       1.08180    0.91557    0.87886   1.00
C3       1.24915    0.88102    0.92280   1.00
H1       1.13692    0.91402    0.97773   1.00
H1       1.19185    0.97652    0.90265   1.00
H1       1.06468    0.91363    0.97625   1.00
H1       1.26395    0.97686    0.90375   1.00
H1       1.06679    0.91569    0.85106   1.00
H1       1.26543    0.85447    0.92811   1.00
C5       1.18739    0.84132    0.92824   1.00
H1       1.13901    0.91581    0.85227   1.00
H2       1.20854    0.81844    0.93724   1.00
H2       1.16603    0.84411    0.95247   1.00
N1       1.16792    0.82859    0.89242   1.00
C6       1.18512    0.82197    0.85772   1.00
C6       1.12960    0.82098    0.88827   1.00
C6       1.15743    0.81035    0.83095   1.00
C6       1.12211    0.80974    0.85038   1.00
H3       1.21599    0.82560    0.85202   1.00
H3       1.10809    0.82388    0.91124   1.00
H3       1.16241    0.80310    0.80065   1.00
H3       1.09403    0.80200    0.83827   1.00
C4       0.91493    0.68585    0.91507   1.00
C4       0.91507    0.64415    0.91493   1.00
C3       0.88015    0.70792    0.91441   1.00
C3       0.92179    0.62275    0.94948   1.00
C3       0.95040    0.70684    0.91592   1.00
C3a      0.90792    0.62237    0.88011   1.00
C2       0.91648    0.77017    0.91471   1.00
C2       0.91365    0.55983    0.91559   1.00
C3       0.88098    0.74934    0.91422   1.00
C3       0.92106    0.58141    0.94974   1.00
C3       0.95114    0.74820    0.91557   1.00
C3       0.90720    0.58085    0.88102   1.00
H1       0.85227    0.69308    0.91402   1.00
H1       0.92735    0.63815    0.97652   1.00
H1       0.85375    0.76532    0.91363   1.00
H1       0.92625    0.56605    0.97686   1.00
H1       0.97894    0.76321    0.91569   1.00
H1       0.90189    0.56457    0.85447   1.00
C5       0.90176    0.64261    0.84132   1.00
H1       0.97773    0.69099    0.91581   1.00
H2       0.89276    0.62146    0.81844   1.00
H2       0.87753    0.66397    0.84411   1.00
N1       0.93758    0.66208    0.82859   1.00
C6       0.97228    0.64488    0.82197   1.00
C6       0.94173    0.70040    0.82098   1.00
C6       0.99905    0.67257    0.81035   1.00
C6       0.97962    0.70789    0.80974   1.00
H3       0.97798    0.61401    0.82560   1.00
H3       0.91876    0.72191    0.82388   1.00
H3       1.02935    0.66759    0.80310   1.00
H3       0.99173    0.73597    0.80200   1.00
C4       0.91507    0.91493    0.68585   1.00
C4       0.91493    0.91507    0.64415   1.00
C3       0.91441    0.88015    0.70792   1.00
C3       0.94948    0.92179    0.62275   1.00
C3       0.91592    0.95040    0.70684   1.00
C3a      0.88011    0.90792    0.62237   1.00
C2       0.91471    0.91648    0.77017   1.00
C2       0.91559    0.91365    0.55983   1.00
C3       0.91422    0.88098    0.74934   1.00
C3       0.94974    0.92106    0.58141   1.00
C3       0.91557    0.95114    0.74820   1.00
C3       0.88102    0.90720    0.58085   1.00
H1       0.91402    0.85227    0.69308   1.00
H1       0.97652    0.92735    0.63815   1.00
H1       0.91363    0.85375    0.76532   1.00
H1       0.97686    0.92625    0.56605   1.00
H1       0.91569    0.97894    0.76321   1.00
H1       0.85447    0.90189    0.56457   1.00
C5       0.84132    0.90176    0.64261   1.00
H1       0.91581    0.97773    0.69099   1.00
H2       0.81844    0.89276    0.62146   1.00
H2       0.84411    0.87753    0.66397   1.00
N1       0.82859    0.93758    0.66208   1.00
C6       0.82197    0.97228    0.64488   1.00
C6       0.82098    0.94173    0.70040   1.00
C6       0.81035    0.99905    0.67257   1.00
C6       0.80974    0.97962    0.70789   1.00
H3       0.82560    0.97798    0.61401   1.00
H3       0.82388    0.91876    0.72191   1.00
H3       0.80310    1.02935    0.66759   1.00
H3       0.80200    0.99173    0.73597   1.00
C4       0.41507    0.41507    1.14415   1.00
C4       0.41493    0.41493    1.18585   1.00
C3       0.41441    0.44985    1.12208   1.00
C3       0.44948    0.40821    1.20725   1.00
C3       0.41592    0.37960    1.12316   1.00
C3a      0.38011    0.42208    1.20763   1.00
C2       0.41471    0.41352    1.05983   1.00
C2       0.41559    0.41635    1.27017   1.00
C3       0.41422    0.44902    1.08066   1.00
C3       0.44974    0.40894    1.24859   1.00
C3       0.41557    0.37886    1.08180   1.00
C3       0.38102    0.42280    1.24915   1.00
H1       0.41402    0.47773    1.13692   1.00
H1       0.47652    0.40265    1.19185   1.00
H1       0.41363    0.47625    1.06468   1.00
H1       0.47686    0.40375    1.26395   1.00
H1       0.41569    0.35106    1.06679   1.00
H1       0.35447    0.42811    1.26543   1.00
C5       0.34132    0.42824    1.18739   1.00
H1       0.41581    0.35227    1.13901   1.00
H2       0.31844    0.43724    1.20854   1.00
H2       0.34411    0.45247    1.16603   1.00
N1       0.32859    0.39242    1.16792   1.00
C6       0.32197    0.35772    1.18512   1.00
C6       0.32098    0.38827    1.12960   1.00
C6       0.31035    0.33095    1.15743   1.00
C6       0.30974    0.35038    1.12211   1.00
H3       0.32560    0.35202    1.21599   1.00
H3       0.32388    0.41124    1.10809   1.00
H3       0.30310    0.30065    1.16241   1.00
H3       0.30200    0.33827    1.09403   1.00
C4       0.41507    0.64415    0.91507   1.00
C4       0.41493    0.68585    0.91493   1.00
C3       0.44985    0.62208    0.91441   1.00
C3       0.40821    0.70725    0.94948   1.00
C3       0.37960    0.62316    0.91592   1.00
C3a      0.42208    0.70763    0.88011   1.00
C2       0.41352    0.55983    0.91471   1.00
C2       0.41635    0.77017    0.91559   1.00
C3       0.44902    0.58066    0.91422   1.00
C3       0.40894    0.74859    0.94974   1.00
C3       0.37886    0.58180    0.91557   1.00
C3       0.42280    0.74915    0.88102   1.00
H1       0.47773    0.63692    0.91402   1.00
H1       0.40265    0.69185    0.97652   1.00
H1       0.47625    0.56468    0.91363   1.00
H1       0.40375    0.76395    0.97686   1.00
H1       0.35106    0.56679    0.91569   1.00
H1       0.42811    0.76543    0.85447   1.00
C5       0.42824    0.68739    0.84132   1.00
H1       0.35227    0.63901    0.91581   1.00
H2       0.43724    0.70854    0.81844   1.00
H2       0.45247    0.66603    0.84411   1.00
N1       0.39242    0.66792    0.82859   1.00
C6       0.35772    0.68512    0.82197   1.00
C6       0.38827    0.62960    0.82098   1.00
C6       0.33095    0.65743    0.81035   1.00
C6       0.35038    0.62211    0.80974   1.00
H3       0.35202    0.71599    0.82560   1.00
H3       0.41124    0.60809    0.82388   1.00
H3       0.30065    0.66241    0.80310   1.00
H3       0.33827    0.59403    0.80200   1.00
C4       0.18585    0.41507    0.91493   1.00
C4       0.14415    0.41493    0.91507   1.00
C3       0.20792    0.41441    0.88015   1.00
C3       0.12275    0.44948    0.92179   1.00
C3       0.20684    0.41592    0.95040   1.00
C3a      0.12237    0.38011    0.90792   1.00
C2       0.27017    0.41471    0.91648   1.00
C2       0.05983    0.41559    0.91365   1.00
C3       0.24934    0.41422    0.88098   1.00
C3       0.08141    0.44974    0.92106   1.00
C3       0.24820    0.41557    0.95114   1.00
C3       0.08085    0.38102    0.90720   1.00
H1       0.19308    0.41402    0.85227   1.00
H1       0.13815    0.47652    0.92735   1.00
H1       0.26532    0.41363    0.85375   1.00
H1       0.06605    0.47686    0.92625   1.00
H1       0.26321    0.41569    0.97894   1.00
H1       0.06457    0.35447    0.90189   1.00
C5       0.14261    0.34132    0.90176   1.00
H1       0.19099    0.41581    0.97773   1.00
H2       0.12146    0.31844    0.89276   1.00
H2       0.16397    0.34411    0.87753   1.00
N1       0.16208    0.32859    0.93758   1.00
C6       0.14488    0.32197    0.97228   1.00
C6       0.20040    0.32098    0.94173   1.00
C6       0.17257    0.31035    0.99905   1.00
C6       0.20789    0.30974    0.97962   1.00
H3       0.11401    0.32560    0.97798   1.00
H3       0.22191    0.32388    0.91876   1.00
H3       0.16759    0.30310    1.02935   1.00
H3       0.23597    0.30200    0.99173   1.00
C4       0.64415    0.41507    0.91507   1.00
C4       0.68585    0.41493    0.91493   1.00
C3       0.62208    0.41441    0.94985   1.00
C3       0.70725    0.44948    0.90821   1.00
C3       0.62316    0.41592    0.87960   1.00
C3a      0.70763    0.38011    0.92208   1.00
C2       0.55983    0.41471    0.91352   1.00
C2       0.77017    0.41559    0.91635   1.00
C3       0.58066    0.41422    0.94902   1.00
C3       0.74859    0.44974    0.90894   1.00
C3       0.58180    0.41557    0.87886   1.00
C3       0.74915    0.38102    0.92280   1.00
H1       0.63692    0.41402    0.97773   1.00
H1       0.69185    0.47652    0.90265   1.00
H1       0.56468    0.41363    0.97625   1.00
H1       0.76395    0.47686    0.90375   1.00
H1       0.56679    0.41569    0.85106   1.00
H1       0.76543    0.35447    0.92811   1.00
C5       0.68739    0.34132    0.92824   1.00
H1       0.63901    0.41581    0.85227   1.00
H2       0.70854    0.31844    0.93724   1.00
H2       0.66603    0.34411    0.95247   1.00
N1       0.66792    0.32859    0.89242   1.00
C6       0.68512    0.32197    0.85772   1.00
C6       0.62960    0.32098    0.88827   1.00
C6       0.65743    0.31035    0.83095   1.00
C6       0.62211    0.30974    0.85038   1.00
H3       0.71599    0.32560    0.85202   1.00
H3       0.60809    0.32388    0.91124   1.00
H3       0.66241    0.30310    0.80065   1.00
H3       0.59403    0.30200    0.83827   1.00
C4       0.41493    0.18585    0.91507   1.00
C4       0.41507    0.14415    0.91493   1.00
C3       0.38015    0.20792    0.91441   1.00
C3       0.42179    0.12275    0.94948   1.00
C3       0.45040    0.20684    0.91592   1.00
C3a      0.40792    0.12237    0.88011   1.00
C2       0.41648    0.27017    0.91471   1.00
C2       0.41365    0.05983    0.91559   1.00
C3       0.38098    0.24934    0.91422   1.00
C3       0.42106    0.08141    0.94974   1.00
C3       0.45114    0.24820    0.91557   1.00
C3       0.40720    0.08085    0.88102   1.00
H1       0.35227    0.19308    0.91402   1.00
H1       0.42735    0.13815    0.97652   1.00
H1       0.35375    0.26532    0.91363   1.00
H1       0.42625    0.06605    0.97686   1.00
H1       0.47894    0.26321    0.91569   1.00
H1       0.40189    0.06457    0.85447   1.00
C5       0.40176    0.14261    0.84132   1.00
H1       0.47773    0.19099    0.91581   1.00
H2       0.39276    0.12146    0.81844   1.00
H2       0.37753    0.16397    0.84411   1.00
N1       0.43758    0.16208    0.82859   1.00
C6       0.47228    0.14488    0.82197   1.00
C6       0.44173    0.20040    0.82098   1.00
C6       0.49905    0.17257    0.81035   1.00
C6       0.47962    0.20789    0.80974   1.00
H3       0.47798    0.11401    0.82560   1.00
H3       0.41876    0.22191    0.82388   1.00
H3       0.52935    0.16759    0.80310   1.00
H3       0.49173    0.23597    0.80200   1.00
C4       0.41507    0.41493    0.68585   1.00
C4       0.41493    0.41507    0.64415   1.00
C3       0.41441    0.38015    0.70792   1.00
C3       0.44948    0.42179    0.62275   1.00
C3       0.41592    0.45040    0.70684   1.00
C3a      0.38011    0.40792    0.62237   1.00
C2       0.41471    0.41648    0.77017   1.00
C2       0.41559    0.41365    0.55983   1.00
C3       0.41422    0.38098    0.74934   1.00
C3       0.44974    0.42106    0.58141   1.00
C3       0.41557    0.45114    0.74820   1.00
C3       0.38102    0.40720    0.58085   1.00
H1       0.41402    0.35227    0.69308   1.00
H1       0.47652    0.42735    0.63815   1.00
H1       0.41363    0.35375    0.76532   1.00
H1       0.47686    0.42625    0.56605   1.00
H1       0.41569    0.47894    0.76321   1.00
H1       0.35447    0.40189    0.56457   1.00
C5       0.34132    0.40176    0.64261   1.00
H1       0.41581    0.47773    0.69099   1.00
H2       0.31844    0.39276    0.62146   1.00
H2       0.34411    0.37753    0.66397   1.00
N1       0.32859    0.43758    0.66208   1.00
C6       0.32197    0.47228    0.64488   1.00
C6       0.32098    0.44173    0.70040   1.00
C6       0.31035    0.49905    0.67257   1.00
C6       0.30974    0.47962    0.70789   1.00
H3       0.32560    0.47798    0.61401   1.00
H3       0.32388    0.41876    0.72191   1.00
H3       0.30310    0.52935    0.66759   1.00
H3       0.30200    0.49173    0.73597   1.00
C4       0.41507    0.91507    0.64415   1.00
C4       0.41493    0.91493    0.68585   1.00
C3       0.41441    0.94985    0.62208   1.00
C3       0.44948    0.90821    0.70725   1.00
C3       0.41592    0.87960    0.62316   1.00
C3a      0.38011    0.92208    0.70763   1.00
C2       0.41471    0.91352    0.55983   1.00
C2       0.41559    0.91635    0.77017   1.00
C3       0.41422    0.94902    0.58066   1.00
C3       0.44974    0.90894    0.74859   1.00
C3       0.41557    0.87886    0.58180   1.00
C3       0.38102    0.92280    0.74915   1.00
H1       0.41402    0.97773    0.63692   1.00
H1       0.47652    0.90265    0.69185   1.00
H1       0.41363    0.97625    0.56468   1.00
H1       0.47686    0.90375    0.76395   1.00
H1       0.41569    0.85106    0.56679   1.00
H1       0.35447    0.92811    0.76543   1.00
C5       0.34132    0.92824    0.68739   1.00
H1       0.41581    0.85227    0.63901   1.00
H2       0.31844    0.93724    0.70854   1.00
H2       0.34411    0.95247    0.66603   1.00
N1       0.32859    0.89242    0.66792   1.00
C6       0.32197    0.85772    0.68512   1.00
C6       0.32098    0.88827    0.62960   1.00
C6       0.31035    0.83095    0.65743   1.00
C6       0.30974    0.85038    0.62211   1.00
H3       0.32560    0.85202    0.71599   1.00
H3       0.32388    0.91124    0.60809   1.00
H3       0.30310    0.80065    0.66241   1.00
H3       0.30200    0.83827    0.59403   1.00
C4       0.41507    1.14415    0.41507   1.00
C4       0.41493    1.18585    0.41493   1.00
C3       0.44985    1.12208    0.41441   1.00
C3       0.40821    1.20725    0.44948   1.00
C3       0.37960    1.12316    0.41592   1.00
C3a      0.42208    1.20763    0.38011   1.00
C2       0.41352    1.05983    0.41471   1.00
C2       0.41635    1.27017    0.41559   1.00
C3       0.44902    1.08066    0.41422   1.00
C3       0.40894    1.24859    0.44974   1.00
C3       0.37886    1.08180    0.41557   1.00
C3       0.42280    1.24915    0.38102   1.00
H1       0.47773    1.13692    0.41402   1.00
H1       0.40265    1.19185    0.47652   1.00
H1       0.47625    1.06468    0.41363   1.00
H1       0.40375    1.26395    0.47686   1.00
H1       0.35106    1.06679    0.41569   1.00
H1       0.42811    1.26543    0.35447   1.00
C5       0.42824    1.18739    0.34132   1.00
H1       0.35227    1.13901    0.41581   1.00
H2       0.43724    1.20854    0.31844   1.00
H2       0.45247    1.16603    0.34411   1.00
N1       0.39242    1.16792    0.32859   1.00
C6       0.35772    1.18512    0.32197   1.00
C6       0.38827    1.12960    0.32098   1.00
C6       0.33095    1.15743    0.31035   1.00
C6       0.35038    1.12211    0.30974   1.00
H3       0.35202    1.21599    0.32560   1.00
H3       0.41124    1.10809    0.32388   1.00
H3       0.30065    1.16241    0.30310   1.00
H3       0.33827    1.09403    0.30200   1.00
C4       0.18585    0.91507    0.41493   1.00
C4       0.14415    0.91493    0.41507   1.00
C3       0.20792    0.91441    0.38015   1.00
C3       0.12275    0.94948    0.42179   1.00
C3       0.20684    0.91592    0.45040   1.00
C3a      0.12237    0.88011    0.40792   1.00
C2       0.27017    0.91471    0.41648   1.00
C2       0.05983    0.91559    0.41365   1.00
C3       0.24934    0.91422    0.38098   1.00
C3       0.08141    0.94974    0.42106   1.00
C3       0.24820    0.91557    0.45114   1.00
C3       0.08085    0.88102    0.40720   1.00
H1       0.19308    0.91402    0.35227   1.00
H1       0.13815    0.97652    0.42735   1.00
H1       0.26532    0.91363    0.35375   1.00
H1       0.06605    0.97686    0.42625   1.00
H1       0.26321    0.91569    0.47894   1.00
H1       0.06457    0.85447    0.40189   1.00
C5       0.14261    0.84132    0.40176   1.00
H1       0.19099    0.91581    0.47773   1.00
H2       0.12146    0.81844    0.39276   1.00
H2       0.16397    0.84411    0.37753   1.00
N1       0.16208    0.82859    0.43758   1.00
C6       0.14488    0.82197    0.47228   1.00
C6       0.20040    0.82098    0.44173   1.00
C6       0.17257    0.81035    0.49905   1.00
C6       0.20789    0.80974    0.47962   1.00
H3       0.11401    0.82560    0.47798   1.00
H3       0.22191    0.82388    0.41876   1.00
H3       0.16759    0.80310    0.52935   1.00
H3       0.23597    0.80200    0.49173   1.00
C4       0.64415    0.91507    0.41507   1.00
C4       0.68585    0.91493    0.41493   1.00
C3       0.62208    0.91441    0.44985   1.00
C3       0.70725    0.94948    0.40821   1.00
C3       0.62316    0.91592    0.37960   1.00
C3a      0.70763    0.88011    0.42208   1.00
C2       0.55983    0.91471    0.41352   1.00
C2       0.77017    0.91559    0.41635   1.00
C3       0.58066    0.91422    0.44902   1.00
C3       0.74859    0.94974    0.40894   1.00
C3       0.58180    0.91557    0.37886   1.00
C3       0.74915    0.88102    0.42280   1.00
H1       0.63692    0.91402    0.47773   1.00
H1       0.69185    0.97652    0.40265   1.00
H1       0.56468    0.91363    0.47625   1.00
H1       0.76395    0.97686    0.40375   1.00
H1       0.56679    0.91569    0.35106   1.00
H1       0.76543    0.85447    0.42811   1.00
C5       0.68739    0.84132    0.42824   1.00
H1       0.63901    0.91581    0.35227   1.00
H2       0.70854    0.81844    0.43724   1.00
H2       0.66603    0.84411    0.45247   1.00
N1       0.66792    0.82859    0.39242   1.00
C6       0.68512    0.82197    0.35772   1.00
C6       0.62960    0.82098    0.38827   1.00
C6       0.65743    0.81035    0.33095   1.00
C6       0.62211    0.80974    0.35038   1.00
H3       0.71599    0.82560    0.35202   1.00
H3       0.60809    0.82388    0.41124   1.00
H3       0.66241    0.80310    0.30065   1.00
H3       0.59403    0.80200    0.33827   1.00
C4       0.41493    0.68585    0.41507   1.00
C4       0.41507    0.64415    0.41493   1.00
C3       0.38015    0.70792    0.41441   1.00
C3       0.42179    0.62275    0.44948   1.00
C3       0.45040    0.70684    0.41592   1.00
C3a      0.40792    0.62237    0.38011   1.00
C2       0.41648    0.77017    0.41471   1.00
C2       0.41365    0.55983    0.41559   1.00
C3       0.38098    0.74934    0.41422   1.00
C3       0.42106    0.58141    0.44974   1.00
C3       0.45114    0.74820    0.41557   1.00
C3       0.40720    0.58085    0.38102   1.00
H1       0.35227    0.69308    0.41402   1.00
H1       0.42735    0.63815    0.47652   1.00
H1       0.35375    0.76532    0.41363   1.00
H1       0.42625    0.56605    0.47686   1.00
H1       0.47894    0.76321    0.41569   1.00
H1       0.40189    0.56457    0.35447   1.00
C5       0.40176    0.64261    0.34132   1.00
H1       0.47773    0.69099    0.41581   1.00
H2       0.39276    0.62146    0.31844   1.00
H2       0.37753    0.66397    0.34411   1.00
N1       0.43758    0.66208    0.32859   1.00
C6       0.47228    0.64488    0.32197   1.00
C6       0.44173    0.70040    0.32098   1.00
C6       0.49905    0.67257    0.31035   1.00
C6       0.47962    0.70789    0.30974   1.00
H3       0.47798    0.61401    0.32560   1.00
H3       0.41876    0.72191    0.32388   1.00
H3       0.52935    0.66759    0.30310   1.00
H3       0.49173    0.73597    0.30200   1.00
C4       0.41507    0.91493    0.18585   1.00
C4       0.41493    0.91507    0.14415   1.00
C3       0.41441    0.88015    0.20792   1.00
C3       0.44948    0.92179    0.12275   1.00
C3       0.41592    0.95040    0.20684   1.00
C3a      0.38011    0.90792    0.12237   1.00
C2       0.41471    0.91648    0.27017   1.00
C2       0.41559    0.91365    0.05983   1.00
C3       0.41422    0.88098    0.24934   1.00
C3       0.44974    0.92106    0.08141   1.00
C3       0.41557    0.95114    0.24820   1.00
C3       0.38102    0.90720    0.08085   1.00
H1       0.41402    0.85227    0.19308   1.00
H1       0.47652    0.92735    0.13815   1.00
H1       0.41363    0.85375    0.26532   1.00
H1       0.47686    0.92625    0.06605   1.00
H1       0.41569    0.97894    0.26321   1.00
H1       0.35447    0.90189    0.06457   1.00
C5       0.34132    0.90176    0.14261   1.00
H1       0.41581    0.97773    0.19099   1.00
H2       0.31844    0.89276    0.12146   1.00
H2       0.34411    0.87753    0.16397   1.00
N1       0.32859    0.93758    0.16208   1.00
C6       0.32197    0.97228    0.14488   1.00
C6       0.32098    0.94173    0.20040   1.00
C6       0.31035    0.99905    0.17257   1.00
C6       0.30974    0.97962    0.20789   1.00
H3       0.32560    0.97798    0.11401   1.00
H3       0.32388    0.91876    0.22191   1.00
H3       0.30310    1.02935    0.16759   1.00
H3       0.30200    0.99173    0.23597   1.00
C4       0.91507    0.41507    0.64415   1.00
C4       0.91493    0.41493    0.68585   1.00
C3       0.91441    0.44985    0.62208   1.00
C3       0.94948    0.40821    0.70725   1.00
C3       0.91592    0.37960    0.62316   1.00
C3a      0.88011    0.42208    0.70763   1.00
C2       0.91471    0.41352    0.55983   1.00
C2       0.91559    0.41635    0.77017   1.00
C3       0.91422    0.44902    0.58066   1.00
C3       0.94974    0.40894    0.74859   1.00
C3       0.91557    0.37886    0.58180   1.00
C3       0.88102    0.42280    0.74915   1.00
H1       0.91402    0.47773    0.63692   1.00
H1       0.97652    0.40265    0.69185   1.00
H1       0.91363    0.47625    0.56468   1.00
H1       0.97686    0.40375    0.76395   1.00
H1       0.91569    0.35106    0.56679   1.00
H1       0.85447    0.42811    0.76543   1.00
C5       0.84132    0.42824    0.68739   1.00
H1       0.91581    0.35227    0.63901   1.00
H2       0.81844    0.43724    0.70854   1.00
H2       0.84411    0.45247    0.66603   1.00
N1       0.82859    0.39242    0.66792   1.00
C6       0.82197    0.35772    0.68512   1.00
C6       0.82098    0.38827    0.62960   1.00
C6       0.81035    0.33095    0.65743   1.00
C6       0.80974    0.35038    0.62211   1.00
H3       0.82560    0.35202    0.71599   1.00
H3       0.82388    0.41124    0.60809   1.00
H3       0.80310    0.30065    0.66241   1.00
H3       0.80200    0.33827    0.59403   1.00
C4       0.91507    0.64415    0.41507   1.00
C4       0.91493    0.68585    0.41493   1.00
C3       0.94985    0.62208    0.41441   1.00
C3       0.90821    0.70725    0.44948   1.00
C3       0.87960    0.62316    0.41592   1.00
C3a      0.92208    0.70763    0.38011   1.00
C2       0.91352    0.55983    0.41471   1.00
C2       0.91635    0.77017    0.41559   1.00
C3       0.94902    0.58066    0.41422   1.00
C3       0.90894    0.74859    0.44974   1.00
C3       0.87886    0.58180    0.41557   1.00
C3       0.92280    0.74915    0.38102   1.00
H1       0.97773    0.63692    0.41402   1.00
H1       0.90265    0.69185    0.47652   1.00
H1       0.97625    0.56468    0.41363   1.00
H1       0.90375    0.76395    0.47686   1.00
H1       0.85106    0.56679    0.41569   1.00
H1       0.92811    0.76543    0.35447   1.00
C5       0.92824    0.68739    0.34132   1.00
H1       0.85227    0.63901    0.41581   1.00
H2       0.93724    0.70854    0.31844   1.00
H2       0.95247    0.66603    0.34411   1.00
N1       0.89242    0.66792    0.32859   1.00
C6       0.85772    0.68512    0.32197   1.00
C6       0.88827    0.62960    0.32098   1.00
C6       0.83095    0.65743    0.31035   1.00
C6       0.85038    0.62211    0.30974   1.00
H3       0.85202    0.71599    0.32560   1.00
H3       0.91124    0.60809    0.32388   1.00
H3       0.80065    0.66241    0.30310   1.00
H3       0.83827    0.59403    0.30200   1.00
C4       0.68585    0.41507    0.41493   1.00
C4       0.64415    0.41493    0.41507   1.00
C3       0.70792    0.41441    0.38015   1.00
C3       0.62275    0.44948    0.42179   1.00
C3       0.70684    0.41592    0.45040   1.00
C3a      0.62237    0.38011    0.40792   1.00
C2       0.77017    0.41471    0.41648   1.00
C2       0.55983    0.41559    0.41365   1.00
C3       0.74934    0.41422    0.38098   1.00
C3       0.58141    0.44974    0.42106   1.00
C3       0.74820    0.41557    0.45114   1.00
C3       0.58085    0.38102    0.40720   1.00
H1       0.69308    0.41402    0.35227   1.00
H1       0.63815    0.47652    0.42735   1.00
H1       0.76532    0.41363    0.35375   1.00
H1       0.56605    0.47686    0.42625   1.00
H1       0.76321    0.41569    0.47894   1.00
H1       0.56457    0.35447    0.40189   1.00
C5       0.64261    0.34132    0.40176   1.00
H1       0.69099    0.41581    0.47773   1.00
H2       0.62146    0.31844    0.39276   1.00
H2       0.66397    0.34411    0.37753   1.00
N1       0.66208    0.32859    0.43758   1.00
C6       0.64488    0.32197    0.47228   1.00
C6       0.70040    0.32098    0.44173   1.00
C6       0.67257    0.31035    0.49905   1.00
C6       0.70789    0.30974    0.47962   1.00
H3       0.61401    0.32560    0.47798   1.00
H3       0.72191    0.32388    0.41876   1.00
H3       0.66759    0.30310    0.52935   1.00
H3       0.73597    0.30200    0.49173   1.00
C4       1.14415    0.41507    0.41507   1.00
C4       1.18585    0.41493    0.41493   1.00
C3       1.12208    0.41441    0.44985   1.00
C3       1.20725    0.44948    0.40821   1.00
C3       1.12316    0.41592    0.37960   1.00
C3a      1.20763    0.38011    0.42208   1.00
C2       1.05983    0.41471    0.41352   1.00
C2       1.27017    0.41559    0.41635   1.00
C3       1.08066    0.41422    0.44902   1.00
C3       1.24859    0.44974    0.40894   1.00
C3       1.08180    0.41557    0.37886   1.00
C3       1.24915    0.38102    0.42280   1.00
H1       1.13692    0.41402    0.47773   1.00
H1       1.19185    0.47652    0.40265   1.00
H1       1.06468    0.41363    0.47625   1.00
H1       1.26395    0.47686    0.40375   1.00
H1       1.06679    0.41569    0.35106   1.00
H1       1.26543    0.35447    0.42811   1.00
C5       1.18739    0.34132    0.42824   1.00
H1       1.13901    0.41581    0.35227   1.00
H2       1.20854    0.31844    0.43724   1.00
H2       1.16603    0.34411    0.45247   1.00
N1       1.16792    0.32859    0.39242   1.00
C6       1.18512    0.32197    0.35772   1.00
C6       1.12960    0.32098    0.38827   1.00
C6       1.15743    0.31035    0.33095   1.00
C6       1.12211    0.30974    0.35038   1.00
H3       1.21599    0.32560    0.35202   1.00
H3       1.10809    0.32388    0.41124   1.00
H3       1.16241    0.30310    0.30065   1.00
H3       1.09403    0.30200    0.33827   1.00
C4       0.91493    0.18585    0.41507   1.00
C4       0.91507    0.14415    0.41493   1.00
C3       0.88015    0.20792    0.41441   1.00
C3       0.92179    0.12275    0.44948   1.00
C3       0.95040    0.20684    0.41592   1.00
C3a      0.90792    0.12237    0.38011   1.00
C2       0.91648    0.27017    0.41471   1.00
C2       0.91365    0.05983    0.41559   1.00
C3       0.88098    0.24934    0.41422   1.00
C3       0.92106    0.08141    0.44974   1.00
C3       0.95114    0.24820    0.41557   1.00
C3       0.90720    0.08085    0.38102   1.00
H1       0.85227    0.19308    0.41402   1.00
H1       0.92735    0.13815    0.47652   1.00
H1       0.85375    0.26532    0.41363   1.00
H1       0.92625    0.06605    0.47686   1.00
H1       0.97894    0.26321    0.41569   1.00
H1       0.90189    0.06457    0.35447   1.00
C5       0.90176    0.14261    0.34132   1.00
H1       0.97773    0.19099    0.41581   1.00
H2       0.89276    0.12146    0.31844   1.00
H2       0.87753    0.16397    0.34411   1.00
N1       0.93758    0.16208    0.32859   1.00
C6       0.97228    0.14488    0.32197   1.00
C6       0.94173    0.20040    0.32098   1.00
C6       0.99905    0.17257    0.31035   1.00
C6       0.97962    0.20789    0.30974   1.00
H3       0.97798    0.11401    0.32560   1.00
H3       0.91876    0.22191    0.32388   1.00
H3       1.02935    0.16759    0.30310   1.00
H3       0.99173    0.23597    0.30200   1.00
C4       0.91507    0.41493    0.18585   1.00
C4       0.91493    0.41507    0.14415   1.00
C3       0.91441    0.38015    0.20792   1.00
C3       0.94948    0.42179    0.12275   1.00
C3       0.91592    0.45040    0.20684   1.00
C3a      0.88011    0.40792    0.12237   1.00
C2       0.91471    0.41648    0.27017   1.00
C2       0.91559    0.41365    0.05983   1.00
C3       0.91422    0.38098    0.24934   1.00
C3       0.94974    0.42106    0.08141   1.00
C3       0.91557    0.45114    0.24820   1.00
C3       0.88102    0.40720    0.08085   1.00
H1       0.91402    0.35227    0.19308   1.00
H1       0.97652    0.42735    0.13815   1.00
H1       0.91363    0.35375    0.26532   1.00
H1       0.97686    0.42625    0.06605   1.00
H1       0.91569    0.47894    0.26321   1.00
H1       0.85447    0.40189    0.06457   1.00
C5       0.84132    0.40176    0.14261   1.00
H1       0.91581    0.47773    0.19099   1.00
H2       0.81844    0.39276    0.12146   1.00
H2       0.84411    0.37753    0.16397   1.00
N1       0.82859    0.43758    0.16208   1.00
C6       0.82197    0.47228    0.14488   1.00
C6       0.82098    0.44173    0.20040   1.00
C6       0.81035    0.49905    0.17257   1.00
C6       0.80974    0.47962    0.20789   1.00
H3       0.82560    0.47798    0.11401   1.00
H3       0.82388    0.41876    0.22191   1.00
H3       0.80310    0.52935    0.16759   1.00
H3       0.80200    0.49173    0.23597   1.00
