data_IRMOF10_SG202_interpen_Ligand7cp_label_b.

_audit_creation_method             'generated by an auxiliary program of Tobunporous'

_symmetry_space_group_name_H-M     'P 1'
_symmetry_Int_Tables_number        1
_symmetry_cell_setting             triclinic

_cell_length_a                    34.2800
_cell_length_b                    34.2800
_cell_length_c                    34.2800
_cell_angle_alpha                 90.0000
_cell_angle_beta                  90.0000
_cell_angle_gamma                 90.0000

loop_
_atom_site_label
_atom_site_fract_x
_atom_site_fract_y
_atom_site_fract_z
_atom_site_occupancy
O1       0.75000    0.75000    0.75000   1.00
Zn1      0.71720    0.78280    0.78280   1.00
Zn1      0.78280    0.71720    0.78280   1.00
Zn1      0.78280    0.78280    0.71720   1.00
Zn1      0.71720    0.71720    0.71720   1.00
O2       0.72650    0.77350    0.83820   1.00
O2       0.72650    0.83820    0.77350   1.00
O2       0.66180    0.77350    0.77350   1.00
O2       0.77350    0.72650    0.83820   1.00
O2       0.83820    0.72650    0.77350   1.00
O2       0.77350    0.66180    0.77350   1.00
O2       0.77350    0.83820    0.72650   1.00
O2       0.83820    0.77350    0.72650   1.00
O2       0.77350    0.77350    0.66180   1.00
O2       0.66180    0.72650    0.72650   1.00
O2       0.72650    0.66180    0.72650   1.00
O2       0.72650    0.72650    0.66180   1.00
C1       0.75000    0.75000    0.85520   1.00
C1       0.75000    0.85520    0.75000   1.00
C1       0.64480    0.75000    0.75000   1.00
C1       0.85520    0.75000    0.75000   1.00
C1       0.75000    0.64480    0.75000   1.00
C1       0.75000    0.75000    0.64480   1.00
O1       0.25000    0.25000    0.75000   1.00
Zn1      0.21720    0.28280    0.78280   1.00
Zn1      0.28280    0.21720    0.78280   1.00
Zn1      0.28280    0.28280    0.71720   1.00
Zn1      0.21720    0.21720    0.71720   1.00
O2       0.22650    0.27350    0.83820   1.00
O2       0.22650    0.33820    0.77350   1.00
O2       0.16180    0.27350    0.77350   1.00
O2       0.27350    0.22650    0.83820   1.00
O2       0.33820    0.22650    0.77350   1.00
O2       0.27350    0.16180    0.77350   1.00
O2       0.27350    0.33820    0.72650   1.00
O2       0.33820    0.27350    0.72650   1.00
O2       0.27350    0.27350    0.66180   1.00
O2       0.16180    0.22650    0.72650   1.00
O2       0.22650    0.16180    0.72650   1.00
O2       0.22650    0.22650    0.66180   1.00
C1       0.25000    0.25000    0.85520   1.00
C1       0.25000    0.35520    0.75000   1.00
C1       0.14480    0.25000    0.75000   1.00
C1       0.35520    0.25000    0.75000   1.00
C1       0.25000    0.14480    0.75000   1.00
C1       0.25000    0.25000    0.64480   1.00
O1       0.25000    0.75000    0.25000   1.00
Zn1      0.21720    0.78280    0.28280   1.00
Zn1      0.28280    0.71720    0.28280   1.00
Zn1      0.28280    0.78280    0.21720   1.00
Zn1      0.21720    0.71720    0.21720   1.00
O2       0.22650    0.77350    0.33820   1.00
O2       0.22650    0.83820    0.27350   1.00
O2       0.16180    0.77350    0.27350   1.00
O2       0.27350    0.72650    0.33820   1.00
O2       0.33820    0.72650    0.27350   1.00
O2       0.27350    0.66180    0.27350   1.00
O2       0.27350    0.83820    0.22650   1.00
O2       0.33820    0.77350    0.22650   1.00
O2       0.27350    0.77350    0.16180   1.00
O2       0.16180    0.72650    0.22650   1.00
O2       0.22650    0.66180    0.22650   1.00
O2       0.22650    0.72650    0.16180   1.00
C1       0.25000    0.75000    0.35520   1.00
C1       0.25000    0.85520    0.25000   1.00
C1       0.14480    0.75000    0.25000   1.00
C1       0.35520    0.75000    0.25000   1.00
C1       0.25000    0.64480    0.25000   1.00
C1       0.25000    0.75000    0.14480   1.00
O1       0.75000    0.25000    0.25000   1.00
Zn1      0.71720    0.28280    0.28280   1.00
Zn1      0.78280    0.21720    0.28280   1.00
Zn1      0.78280    0.28280    0.21720   1.00
Zn1      0.71720    0.21720    0.21720   1.00
O2       0.72650    0.27350    0.33820   1.00
O2       0.72650    0.33820    0.27350   1.00
O2       0.66180    0.27350    0.27350   1.00
O2       0.77350    0.22650    0.33820   1.00
O2       0.83820    0.22650    0.27350   1.00
O2       0.77350    0.16180    0.27350   1.00
O2       0.77350    0.33820    0.22650   1.00
O2       0.83820    0.27350    0.22650   1.00
O2       0.77350    0.27350    0.16180   1.00
O2       0.66180    0.22650    0.22650   1.00
O2       0.72650    0.16180    0.22650   1.00
O2       0.72650    0.22650    0.16180   1.00
C1       0.75000    0.25000    0.35520   1.00
C1       0.75000    0.35520    0.25000   1.00
C1       0.64480    0.25000    0.25000   1.00
C1       0.85520    0.25000    0.25000   1.00
C1       0.75000    0.14480    0.25000   1.00
C1       0.75000    0.25000    0.14480   1.00
O1       0.25000    0.25000    0.25000   1.00
Zn1      0.28280    0.21720    0.21720   1.00
Zn1      0.21720    0.28280    0.21720   1.00
Zn1      0.21720    0.21720    0.28280   1.00
Zn1      0.28280    0.28280    0.28280   1.00
O2       0.27350    0.22650    0.16180   1.00
O2       0.27350    0.16180    0.22650   1.00
O2       0.33820    0.22650    0.22650   1.00
O2       0.22650    0.27350    0.16180   1.00
O2       0.16180    0.27350    0.22650   1.00
O2       0.22650    0.33820    0.22650   1.00
O2       0.22650    0.16180    0.27350   1.00
O2       0.16180    0.22650    0.27350   1.00
O2       0.22650    0.22650    0.33820   1.00
O2       0.33820    0.27350    0.27350   1.00
O2       0.27350    0.33820    0.27350   1.00
O2       0.27350    0.27350    0.33820   1.00
C1       0.25000    0.25000    0.14480   1.00
C1       0.25000    0.14480    0.25000   1.00
C1       0.35520    0.25000    0.25000   1.00
C1       0.14480    0.25000    0.25000   1.00
C1       0.25000    0.35520    0.25000   1.00
C1       0.25000    0.25000    0.35520   1.00
O1       0.75000    0.75000    0.25000   1.00
Zn1      0.78280    0.71720    0.21720   1.00
Zn1      0.71720    0.78280    0.21720   1.00
Zn1      0.71720    0.71720    0.28280   1.00
Zn1      0.78280    0.78280    0.28280   1.00
O2       0.77350    0.72650    0.16180   1.00
O2       0.77350    0.66180    0.22650   1.00
O2       0.83820    0.72650    0.22650   1.00
O2       0.72650    0.77350    0.16180   1.00
O2       0.66180    0.77350    0.22650   1.00
O2       0.72650    0.83820    0.22650   1.00
O2       0.72650    0.66180    0.27350   1.00
O2       0.66180    0.72650    0.27350   1.00
O2       0.72650    0.72650    0.33820   1.00
O2       0.83820    0.77350    0.27350   1.00
O2       0.77350    0.83820    0.27350   1.00
O2       0.77350    0.77350    0.33820   1.00
C1       0.75000    0.75000    0.14480   1.00
C1       0.75000    0.64480    0.25000   1.00
C1       0.85520    0.75000    0.25000   1.00
C1       0.64480    0.75000    0.25000   1.00
C1       0.75000    0.85520    0.25000   1.00
C1       0.75000    0.75000    0.35520   1.00
O1       0.75000    0.25000    0.75000   1.00
Zn1      0.78280    0.21720    0.71720   1.00
Zn1      0.71720    0.28280    0.71720   1.00
Zn1      0.71720    0.21720    0.78280   1.00
Zn1      0.78280    0.28280    0.78280   1.00
O2       0.77350    0.22650    0.66180   1.00
O2       0.77350    0.16180    0.72650   1.00
O2       0.83820    0.22650    0.72650   1.00
O2       0.72650    0.27350    0.66180   1.00
O2       0.66180    0.27350    0.72650   1.00
O2       0.72650    0.33820    0.72650   1.00
O2       0.72650    0.16180    0.77350   1.00
O2       0.66180    0.22650    0.77350   1.00
O2       0.72650    0.22650    0.83820   1.00
O2       0.83820    0.27350    0.77350   1.00
O2       0.77350    0.33820    0.77350   1.00
O2       0.77350    0.27350    0.83820   1.00
C1       0.75000    0.25000    0.64480   1.00
C1       0.75000    0.14480    0.75000   1.00
C1       0.85520    0.25000    0.75000   1.00
C1       0.64480    0.25000    0.75000   1.00
C1       0.75000    0.35520    0.75000   1.00
C1       0.75000    0.25000    0.85520   1.00
O1       0.25000    0.75000    0.75000   1.00
Zn1      0.28280    0.71720    0.71720   1.00
Zn1      0.21720    0.78280    0.71720   1.00
Zn1      0.21720    0.71720    0.78280   1.00
Zn1      0.28280    0.78280    0.78280   1.00
O2       0.27350    0.72650    0.66180   1.00
O2       0.27350    0.66180    0.72650   1.00
O2       0.33820    0.72650    0.72650   1.00
O2       0.22650    0.77350    0.66180   1.00
O2       0.16180    0.77350    0.72650   1.00
O2       0.22650    0.83820    0.72650   1.00
O2       0.22650    0.66180    0.77350   1.00
O2       0.16180    0.72650    0.77350   1.00
O2       0.22650    0.72650    0.83820   1.00
O2       0.33820    0.77350    0.77350   1.00
O2       0.27350    0.83820    0.77350   1.00
O2       0.27350    0.77350    0.83820   1.00
C1       0.25000    0.75000    0.64480   1.00
C1       0.25000    0.64480    0.75000   1.00
C1       0.35520    0.75000    0.75000   1.00
C1       0.14480    0.75000    0.75000   1.00
C1       0.25000    0.85520    0.75000   1.00
C1       0.25000    0.75000    0.85520   1.00
O1       0.91500    0.91500    0.91500   1.00
Zn1      0.88220    0.94780    0.94780   1.00
Zn1      0.94780    0.88220    0.94780   1.00
Zn1      0.94780    0.94780    0.88220   1.00
Zn1      0.88220    0.88220    0.88220   1.00
O2       0.89150    0.93850    1.00320   1.00
O2       0.89150    1.00320    0.93850   1.00
O2       0.82680    0.93850    0.93850   1.00
O2       0.93850    0.89150    1.00320   1.00
O2       1.00320    0.89150    0.93850   1.00
O2       0.93850    0.82680    0.93850   1.00
O2       0.93850    1.00320    0.89150   1.00
O2       1.00320    0.93850    0.89150   1.00
O2       0.93850    0.93850    0.82680   1.00
O2       0.82680    0.89150    0.89150   1.00
O2       0.89150    0.82680    0.89150   1.00
O2       0.89150    0.89150    0.82680   1.00
C1       0.91500    0.91500    1.02020   1.00
C1       0.91500    1.02020    0.91500   1.00
C1       0.80980    0.91500    0.91500   1.00
C1       1.02020    0.91500    0.91500   1.00
C1       0.91500    0.80980    0.91500   1.00
C1       0.91500    0.91500    0.80980   1.00
O1       0.41500    0.41500    0.91500   1.00
Zn1      0.38220    0.44780    0.94780   1.00
Zn1      0.44780    0.38220    0.94780   1.00
Zn1      0.44780    0.44780    0.88220   1.00
Zn1      0.38220    0.38220    0.88220   1.00
O2       0.39150    0.43850    1.00320   1.00
O2       0.39150    0.50320    0.93850   1.00
O2       0.32680    0.43850    0.93850   1.00
O2       0.43850    0.39150    1.00320   1.00
O2       0.50320    0.39150    0.93850   1.00
O2       0.43850    0.32680    0.93850   1.00
O2       0.43850    0.50320    0.89150   1.00
O2       0.50320    0.43850    0.89150   1.00
O2       0.43850    0.43850    0.82680   1.00
O2       0.32680    0.39150    0.89150   1.00
O2       0.39150    0.32680    0.89150   1.00
O2       0.39150    0.39150    0.82680   1.00
C1       0.41500    0.41500    1.02020   1.00
C1       0.41500    0.52020    0.91500   1.00
C1       0.30980    0.41500    0.91500   1.00
C1       0.52020    0.41500    0.91500   1.00
C1       0.41500    0.30980    0.91500   1.00
C1       0.41500    0.41500    0.80980   1.00
O1       0.41500    0.91500    0.41500   1.00
Zn1      0.38220    0.94780    0.44780   1.00
Zn1      0.44780    0.88220    0.44780   1.00
Zn1      0.44780    0.94780    0.38220   1.00
Zn1      0.38220    0.88220    0.38220   1.00
O2       0.39150    0.93850    0.50320   1.00
O2       0.39150    1.00320    0.43850   1.00
O2       0.32680    0.93850    0.43850   1.00
O2       0.43850    0.89150    0.50320   1.00
O2       0.50320    0.89150    0.43850   1.00
O2       0.43850    0.82680    0.43850   1.00
O2       0.43850    1.00320    0.39150   1.00
O2       0.50320    0.93850    0.39150   1.00
O2       0.43850    0.93850    0.32680   1.00
O2       0.32680    0.89150    0.39150   1.00
O2       0.39150    0.82680    0.39150   1.00
O2       0.39150    0.89150    0.32680   1.00
C1       0.41500    0.91500    0.52020   1.00
C1       0.41500    1.02020    0.41500   1.00
C1       0.30980    0.91500    0.41500   1.00
C1       0.52020    0.91500    0.41500   1.00
C1       0.41500    0.80980    0.41500   1.00
C1       0.41500    0.91500    0.30980   1.00
O1       0.91500    0.41500    0.41500   1.00
Zn1      0.88220    0.44780    0.44780   1.00
Zn1      0.94780    0.38220    0.44780   1.00
Zn1      0.94780    0.44780    0.38220   1.00
Zn1      0.88220    0.38220    0.38220   1.00
O2       0.89150    0.43850    0.50320   1.00
O2       0.89150    0.50320    0.43850   1.00
O2       0.82680    0.43850    0.43850   1.00
O2       0.93850    0.39150    0.50320   1.00
O2       1.00320    0.39150    0.43850   1.00
O2       0.93850    0.32680    0.43850   1.00
O2       0.93850    0.50320    0.39150   1.00
O2       1.00320    0.43850    0.39150   1.00
O2       0.93850    0.43850    0.32680   1.00
O2       0.82680    0.39150    0.39150   1.00
O2       0.89150    0.32680    0.39150   1.00
O2       0.89150    0.39150    0.32680   1.00
C1       0.91500    0.41500    0.52020   1.00
C1       0.91500    0.52020    0.41500   1.00
C1       0.80980    0.41500    0.41500   1.00
C1       1.02020    0.41500    0.41500   1.00
C1       0.91500    0.30980    0.41500   1.00
C1       0.91500    0.41500    0.30980   1.00
O1       0.41500    0.41500    0.41500   1.00
Zn1      0.44780    0.38220    0.38220   1.00
Zn1      0.38220    0.44780    0.38220   1.00
Zn1      0.38220    0.38220    0.44780   1.00
Zn1      0.44780    0.44780    0.44780   1.00
O2       0.43850    0.39150    0.32680   1.00
O2       0.43850    0.32680    0.39150   1.00
O2       0.50320    0.39150    0.39150   1.00
O2       0.39150    0.43850    0.32680   1.00
O2       0.32680    0.43850    0.39150   1.00
O2       0.39150    0.50320    0.39150   1.00
O2       0.39150    0.32680    0.43850   1.00
O2       0.32680    0.39150    0.43850   1.00
O2       0.39150    0.39150    0.50320   1.00
O2       0.50320    0.43850    0.43850   1.00
O2       0.43850    0.50320    0.43850   1.00
O2       0.43850    0.43850    0.50320   1.00
C1       0.41500    0.41500    0.30980   1.00
C1       0.41500    0.30980    0.41500   1.00
C1       0.52020    0.41500    0.41500   1.00
C1       0.30980    0.41500    0.41500   1.00
C1       0.41500    0.52020    0.41500   1.00
C1       0.41500    0.41500    0.52020   1.00
O1       0.91500    0.91500    0.41500   1.00
Zn1      0.94780    0.88220    0.38220   1.00
Zn1      0.88220    0.94780    0.38220   1.00
Zn1      0.88220    0.88220    0.44780   1.00
Zn1      0.94780    0.94780    0.44780   1.00
O2       0.93850    0.89150    0.32680   1.00
O2       0.93850    0.82680    0.39150   1.00
O2       1.00320    0.89150    0.39150   1.00
O2       0.89150    0.93850    0.32680   1.00
O2       0.82680    0.93850    0.39150   1.00
O2       0.89150    1.00320    0.39150   1.00
O2       0.89150    0.82680    0.43850   1.00
O2       0.82680    0.89150    0.43850   1.00
O2       0.89150    0.89150    0.50320   1.00
O2       1.00320    0.93850    0.43850   1.00
O2       0.93850    1.00320    0.43850   1.00
O2       0.93850    0.93850    0.50320   1.00
C1       0.91500    0.91500    0.30980   1.00
C1       0.91500    0.80980    0.41500   1.00
C1       1.02020    0.91500    0.41500   1.00
C1       0.80980    0.91500    0.41500   1.00
C1       0.91500    1.02020    0.41500   1.00
C1       0.91500    0.91500    0.52020   1.00
O1       0.91500    0.41500    0.91500   1.00
Zn1      0.94780    0.38220    0.88220   1.00
Zn1      0.88220    0.44780    0.88220   1.00
Zn1      0.88220    0.38220    0.94780   1.00
Zn1      0.94780    0.44780    0.94780   1.00
O2       0.93850    0.39150    0.82680   1.00
O2       0.93850    0.32680    0.89150   1.00
O2       1.00320    0.39150    0.89150   1.00
O2       0.89150    0.43850    0.82680   1.00
O2       0.82680    0.43850    0.89150   1.00
O2       0.89150    0.50320    0.89150   1.00
O2       0.89150    0.32680    0.93850   1.00
O2       0.82680    0.39150    0.93850   1.00
O2       0.89150    0.39150    1.00320   1.00
O2       1.00320    0.43850    0.93850   1.00
O2       0.93850    0.50320    0.93850   1.00
O2       0.93850    0.43850    1.00320   1.00
C1       0.91500    0.41500    0.80980   1.00
C1       0.91500    0.30980    0.91500   1.00
C1       1.02020    0.41500    0.91500   1.00
C1       0.80980    0.41500    0.91500   1.00
C1       0.91500    0.52020    0.91500   1.00
C1       0.91500    0.41500    1.02020   1.00
O1       0.41500    0.91500    0.91500   1.00
Zn1      0.44780    0.88220    0.88220   1.00
Zn1      0.38220    0.94780    0.88220   1.00
Zn1      0.38220    0.88220    0.94780   1.00
Zn1      0.44780    0.94780    0.94780   1.00
O2       0.43850    0.89150    0.82680   1.00
O2       0.43850    0.82680    0.89150   1.00
O2       0.50320    0.89150    0.89150   1.00
O2       0.39150    0.93850    0.82680   1.00
O2       0.32680    0.93850    0.89150   1.00
O2       0.39150    1.00320    0.89150   1.00
O2       0.39150    0.82680    0.93850   1.00
O2       0.32680    0.89150    0.93850   1.00
O2       0.39150    0.89150    1.00320   1.00
O2       0.50320    0.93850    0.93850   1.00
O2       0.43850    1.00320    0.93850   1.00
O2       0.43850    0.93850    1.00320   1.00
C1       0.41500    0.91500    0.80980   1.00
C1       0.41500    0.80980    0.91500   1.00
C1       0.52020    0.91500    0.91500   1.00
C1       0.30980    0.91500    0.91500   1.00
C1       0.41500    1.02020    0.91500   1.00
C1       0.41500    0.91500    1.02020   1.00
C5       0.70152    0.86715    1.13218   1.00
H2       0.68054    0.84776    1.14745   1.00
H2       0.68397    0.88418    1.11090   1.00
C5       0.72100    0.89459    1.16194   1.00
C5       0.69436    0.92955    1.17123   1.00
H2       0.74919    0.90559    1.15015   1.00
O3       0.80985    0.78786    0.98000   1.00
C4       0.74982    0.74962    1.02100   1.00
C3c      0.73057    0.77877    1.04243   1.00
H1       0.71524    0.80178    1.02725   1.00
C3d      0.76914    0.71959    1.04135   1.00
C3       0.73121    0.77908    1.08354   1.00
O2       0.70784    0.80568    1.10248   1.00
C3       0.77047    0.72022    1.08227   1.00
H1       0.78681    0.69735    1.09657   1.00
C2       0.75152    0.74972    1.10439   1.00
C5       0.84472    0.76594    0.97879   1.00
H2       0.85532    0.76137    0.94838   1.00
H2       0.84070    0.73675    0.99266   1.00
C5       0.87568    0.78861    1.00129   1.00
H2       0.86462    0.79413    1.03137   1.00
H2       0.87971    0.81754    0.98698   1.00
C5       0.91447    0.76600    1.00262   1.00
H2       0.92555    0.76014    0.97268   1.00
H2       0.91078    0.73770    1.01811   1.00
C5       0.94553    0.79002    1.02445   1.00
C5       0.76674    0.66037    1.01105   1.00
C5       0.72937    0.83991    1.11070   1.00
H2       0.74317    0.66992    0.99088   1.00
H2       0.75313    0.64640    1.03712   1.00
H2       0.73953    0.85368    1.08300   1.00
H2       0.75579    0.83398    1.12895   1.00
H2       0.72639    0.87938    1.19030   1.00
H2       0.75239    0.61344    0.94247   1.00
H2       0.74551    0.58647    0.98763   1.00
C2       0.75264    0.74953    0.89605   1.00
C3       0.72115    0.73196    0.91597   1.00
O2       0.69653    0.70657    0.89674   1.00
C3       0.78177    0.76858    0.91826   1.00
H1       0.80572    0.78318    0.90385   1.00
C3a      0.71998    0.73289    0.95713   1.00
H1       0.69688    0.71739    0.97202   1.00
C3b      0.78118    0.76838    0.95922   1.00
C4       0.75018    0.75038    0.97900   1.00
O3       0.79099    0.69190    1.02167   1.00
C5       0.66121    0.72546    0.88720   1.00
H2       0.64601    0.73630    0.91391   1.00
C5       0.63551    0.69546    0.86674   1.00
H2       0.66647    0.75061    0.86726   1.00
H2       0.62191    0.67646    0.88932   1.00
H2       0.65500    0.67637    0.84907   1.00
C5       0.60396    0.71420    0.84082   1.00
H2       0.58676    0.73547    0.85824   1.00
C5       0.57609    0.68296    0.82453   1.00
H2       0.61714    0.72931    0.81507   1.00
C5       0.79212    0.63039    0.99017   1.00
H2       0.81125    0.61599    1.01215   1.00
H2       0.81164    0.64619    0.96952   1.00
C5       0.76754    0.60002    0.96800   1.00
C5       0.79408    0.56738    0.95225   1.00
H2       0.67090    0.92018    1.19286   1.00
C5       0.71885    0.96270    1.18912   1.00
H2       0.67997    0.94027    1.14323   1.00
C5       0.98105    0.76400    1.03337   1.00
H2       0.95505    0.81565    1.00551   1.00
H2       0.93272    0.80144    1.05293   1.00
C5       0.54095    0.70297    0.80497   1.00
H2       0.59215    0.66437    0.80211   1.00
H2       0.56541    0.66359    0.84937   1.00
H2       0.81979    0.58086    0.93602   1.00
H2       0.80536    0.54906    0.97761   1.00
C5       0.77066    0.54128    0.92417   1.00
H2       0.74723    0.95025    1.20116   1.00
H2       0.72570    0.98530    1.16571   1.00
H2       0.70172    0.97708    1.21374   1.00
H2       0.97737    0.73463    1.01820   1.00
H2       1.00870    0.77880    1.02229   1.00
H2       0.98339    0.75930    1.06621   1.00
H2       0.55124    0.73020    0.78889   1.00
H2       0.52686    0.68199    0.78336   1.00
H2       0.51873    0.71154    0.82819   1.00
H2       0.77413    0.55254    0.89307   1.00
H2       0.78200    0.51007    0.92598   1.00
H2       0.73852    0.54191    0.93266   1.00
C5       0.86715    1.13218    0.70152   1.00
H2       0.84776    1.14745    0.68054   1.00
H2       0.88418    1.11090    0.68397   1.00
C5       0.89459    1.16194    0.72100   1.00
C5       0.92955    1.17123    0.69436   1.00
H2       0.90559    1.15015    0.74919   1.00
O3       0.78786    0.98000    0.80985   1.00
C4       0.74962    1.02100    0.74982   1.00
C3c      0.77877    1.04243    0.73057   1.00
H1       0.80178    1.02725    0.71524   1.00
C3d      0.71959    1.04135    0.76914   1.00
C3       0.77908    1.08354    0.73121   1.00
O2       0.80568    1.10248    0.70784   1.00
C3       0.72022    1.08227    0.77047   1.00
H1       0.69735    1.09657    0.78681   1.00
C2       0.74972    1.10439    0.75152   1.00
C5       0.76594    0.97879    0.84472   1.00
H2       0.76137    0.94838    0.85532   1.00
H2       0.73675    0.99266    0.84070   1.00
C5       0.78861    1.00129    0.87568   1.00
H2       0.79413    1.03137    0.86462   1.00
H2       0.81754    0.98698    0.87971   1.00
C5       0.76600    1.00262    0.91447   1.00
H2       0.76014    0.97268    0.92555   1.00
H2       0.73770    1.01811    0.91078   1.00
C5       0.79002    1.02445    0.94553   1.00
C5       0.66037    1.01105    0.76674   1.00
C5       0.83991    1.11070    0.72937   1.00
H2       0.66992    0.99088    0.74317   1.00
H2       0.64640    1.03712    0.75313   1.00
H2       0.85368    1.08300    0.73953   1.00
H2       0.83398    1.12895    0.75579   1.00
H2       0.87938    1.19030    0.72639   1.00
H2       0.61344    0.94247    0.75239   1.00
H2       0.58647    0.98763    0.74551   1.00
C2       0.74953    0.89605    0.75264   1.00
C3       0.73196    0.91597    0.72115   1.00
O2       0.70657    0.89674    0.69653   1.00
C3       0.76858    0.91826    0.78177   1.00
H1       0.78318    0.90385    0.80572   1.00
C3a      0.73289    0.95713    0.71998   1.00
H1       0.71739    0.97202    0.69688   1.00
C3b      0.76838    0.95922    0.78118   1.00
C4       0.75038    0.97900    0.75018   1.00
O3       0.69190    1.02167    0.79099   1.00
C5       0.72546    0.88720    0.66121   1.00
H2       0.73630    0.91391    0.64601   1.00
C5       0.69546    0.86674    0.63551   1.00
H2       0.75061    0.86726    0.66647   1.00
H2       0.67646    0.88932    0.62191   1.00
H2       0.67637    0.84907    0.65500   1.00
C5       0.71420    0.84082    0.60396   1.00
H2       0.73547    0.85824    0.58676   1.00
C5       0.68296    0.82453    0.57609   1.00
H2       0.72931    0.81507    0.61714   1.00
C5       0.63039    0.99017    0.79212   1.00
H2       0.61599    1.01215    0.81125   1.00
H2       0.64619    0.96952    0.81164   1.00
C5       0.60002    0.96800    0.76754   1.00
C5       0.56738    0.95225    0.79408   1.00
H2       0.92018    1.19286    0.67090   1.00
C5       0.96270    1.18912    0.71885   1.00
H2       0.94027    1.14323    0.67997   1.00
C5       0.76400    1.03337    0.98105   1.00
H2       0.81565    1.00551    0.95505   1.00
H2       0.80144    1.05293    0.93272   1.00
C5       0.70297    0.80497    0.54095   1.00
H2       0.66437    0.80211    0.59215   1.00
H2       0.66359    0.84937    0.56541   1.00
H2       0.58086    0.93602    0.81979   1.00
H2       0.54906    0.97761    0.80536   1.00
C5       0.54128    0.92417    0.77066   1.00
H2       0.95025    1.20116    0.74723   1.00
H2       0.98530    1.16571    0.72570   1.00
H2       0.97708    1.21374    0.70172   1.00
H2       0.73463    1.01820    0.97737   1.00
H2       0.77880    1.02229    1.00870   1.00
H2       0.75930    1.06621    0.98339   1.00
H2       0.73020    0.78889    0.55124   1.00
H2       0.68199    0.78336    0.52686   1.00
H2       0.71154    0.82819    0.51873   1.00
H2       0.55254    0.89307    0.77413   1.00
H2       0.51007    0.92598    0.78200   1.00
H2       0.54191    0.93266    0.73852   1.00
C5       0.36782    0.70152    0.63285   1.00
H2       0.35255    0.68054    0.65224   1.00
H2       0.38910    0.68397    0.61582   1.00
C5       0.33806    0.72100    0.60541   1.00
C5       0.32877    0.69436    0.57045   1.00
H2       0.34985    0.74919    0.59441   1.00
O3       0.52000    0.80985    0.71214   1.00
C4       0.47900    0.74982    0.75038   1.00
C3c      0.45757    0.73057    0.72123   1.00
H1       0.47275    0.71524    0.69822   1.00
C3d      0.45865    0.76914    0.78041   1.00
C3       0.41646    0.73121    0.72092   1.00
O2       0.39752    0.70784    0.69432   1.00
C3       0.41773    0.77047    0.77978   1.00
H1       0.40343    0.78681    0.80265   1.00
C2       0.39561    0.75152    0.75028   1.00
C5       0.52121    0.84472    0.73406   1.00
H2       0.55162    0.85532    0.73863   1.00
H2       0.50734    0.84070    0.76325   1.00
C5       0.49871    0.87568    0.71139   1.00
H2       0.46863    0.86462    0.70587   1.00
H2       0.51302    0.87971    0.68246   1.00
C5       0.49738    0.91447    0.73400   1.00
H2       0.52732    0.92555    0.73986   1.00
H2       0.48189    0.91078    0.76230   1.00
C5       0.47555    0.94553    0.70998   1.00
C5       0.48895    0.76674    0.83963   1.00
C5       0.38930    0.72937    0.66009   1.00
H2       0.50912    0.74317    0.83008   1.00
H2       0.46288    0.75313    0.85360   1.00
H2       0.41700    0.73953    0.64632   1.00
H2       0.37105    0.75579    0.66602   1.00
H2       0.30970    0.72639    0.62062   1.00
H2       0.55753    0.75239    0.88656   1.00
H2       0.51237    0.74551    0.91353   1.00
C2       0.60395    0.75264    0.75047   1.00
C3       0.58403    0.72115    0.76804   1.00
O2       0.60326    0.69653    0.79343   1.00
C3       0.58174    0.78177    0.73142   1.00
H1       0.59615    0.80572    0.71682   1.00
C3a      0.54287    0.71998    0.76711   1.00
H1       0.52798    0.69688    0.78261   1.00
C3b      0.54078    0.78118    0.73162   1.00
C4       0.52100    0.75018    0.74962   1.00
O3       0.47833    0.79099    0.80810   1.00
C5       0.61280    0.66121    0.77454   1.00
H2       0.58609    0.64601    0.76370   1.00
C5       0.63326    0.63551    0.80454   1.00
H2       0.63274    0.66647    0.74939   1.00
H2       0.61068    0.62191    0.82354   1.00
H2       0.65093    0.65500    0.82363   1.00
C5       0.65918    0.60396    0.78580   1.00
H2       0.64176    0.58676    0.76453   1.00
C5       0.67547    0.57609    0.81704   1.00
H2       0.68493    0.61714    0.77069   1.00
C5       0.50983    0.79212    0.86961   1.00
H2       0.48785    0.81125    0.88401   1.00
H2       0.53048    0.81164    0.85381   1.00
C5       0.53200    0.76754    0.89998   1.00
C5       0.54775    0.79408    0.93262   1.00
H2       0.30714    0.67090    0.57982   1.00
C5       0.31088    0.71885    0.53730   1.00
H2       0.35677    0.67997    0.55973   1.00
C5       0.46663    0.98105    0.73600   1.00
H2       0.49449    0.95505    0.68435   1.00
H2       0.44707    0.93272    0.69856   1.00
C5       0.69503    0.54095    0.79703   1.00
H2       0.69789    0.59215    0.83563   1.00
H2       0.65063    0.56541    0.83641   1.00
H2       0.56398    0.81979    0.91914   1.00
H2       0.52239    0.80536    0.95094   1.00
C5       0.57583    0.77066    0.95872   1.00
H2       0.29884    0.74723    0.54975   1.00
H2       0.33429    0.72570    0.51470   1.00
H2       0.28626    0.70172    0.52292   1.00
H2       0.48180    0.97737    0.76537   1.00
H2       0.47771    1.00870    0.72120   1.00
H2       0.43379    0.98339    0.74070   1.00
H2       0.71111    0.55124    0.76980   1.00
H2       0.71664    0.52686    0.81801   1.00
H2       0.67181    0.51873    0.78846   1.00
H2       0.60693    0.77413    0.94746   1.00
H2       0.57402    0.78200    0.98993   1.00
H2       0.56734    0.73852    0.95809   1.00
C5       1.13218    0.70152    0.86715   1.00
H2       1.14745    0.68054    0.84776   1.00
H2       1.11090    0.68397    0.88418   1.00
C5       1.16194    0.72100    0.89459   1.00
C5       1.17123    0.69436    0.92955   1.00
H2       1.15015    0.74919    0.90559   1.00
O3       0.98000    0.80985    0.78786   1.00
C4       1.02100    0.74982    0.74962   1.00
C3c      1.04243    0.73057    0.77877   1.00
H1       1.02725    0.71524    0.80178   1.00
C3d      1.04135    0.76914    0.71959   1.00
C3       1.08354    0.73121    0.77908   1.00
O2       1.10248    0.70784    0.80568   1.00
C3       1.08227    0.77047    0.72022   1.00
H1       1.09657    0.78681    0.69735   1.00
C2       1.10439    0.75152    0.74972   1.00
C5       0.97879    0.84472    0.76594   1.00
H2       0.94838    0.85532    0.76137   1.00
H2       0.99266    0.84070    0.73675   1.00
C5       1.00129    0.87568    0.78861   1.00
H2       1.03137    0.86462    0.79413   1.00
H2       0.98698    0.87971    0.81754   1.00
C5       1.00262    0.91447    0.76600   1.00
H2       0.97268    0.92555    0.76014   1.00
H2       1.01811    0.91078    0.73770   1.00
C5       1.02445    0.94553    0.79002   1.00
C5       1.01105    0.76674    0.66037   1.00
C5       1.11070    0.72937    0.83991   1.00
H2       0.99088    0.74317    0.66992   1.00
H2       1.03712    0.75313    0.64640   1.00
H2       1.08300    0.73953    0.85368   1.00
H2       1.12895    0.75579    0.83398   1.00
H2       1.19030    0.72639    0.87938   1.00
H2       0.94247    0.75239    0.61344   1.00
H2       0.98763    0.74551    0.58647   1.00
C2       0.89605    0.75264    0.74953   1.00
C3       0.91597    0.72115    0.73196   1.00
O2       0.89674    0.69653    0.70657   1.00
C3       0.91826    0.78177    0.76858   1.00
H1       0.90385    0.80572    0.78318   1.00
C3a      0.95713    0.71998    0.73289   1.00
H1       0.97202    0.69688    0.71739   1.00
C3b      0.95922    0.78118    0.76838   1.00
C4       0.97900    0.75018    0.75038   1.00
O3       1.02167    0.79099    0.69190   1.00
C5       0.88720    0.66121    0.72546   1.00
H2       0.91391    0.64601    0.73630   1.00
C5       0.86674    0.63551    0.69546   1.00
H2       0.86726    0.66647    0.75061   1.00
H2       0.88932    0.62191    0.67646   1.00
H2       0.84907    0.65500    0.67637   1.00
C5       0.84082    0.60396    0.71420   1.00
H2       0.85824    0.58676    0.73547   1.00
C5       0.82453    0.57609    0.68296   1.00
H2       0.81507    0.61714    0.72931   1.00
C5       0.99017    0.79212    0.63039   1.00
H2       1.01215    0.81125    0.61599   1.00
H2       0.96952    0.81164    0.64619   1.00
C5       0.96800    0.76754    0.60002   1.00
C5       0.95225    0.79408    0.56738   1.00
H2       1.19286    0.67090    0.92018   1.00
C5       1.18912    0.71885    0.96270   1.00
H2       1.14323    0.67997    0.94027   1.00
C5       1.03337    0.98105    0.76400   1.00
H2       1.00551    0.95505    0.81565   1.00
H2       1.05293    0.93272    0.80144   1.00
C5       0.80497    0.54095    0.70297   1.00
H2       0.80211    0.59215    0.66437   1.00
H2       0.84937    0.56541    0.66359   1.00
H2       0.93602    0.81979    0.58086   1.00
H2       0.97761    0.80536    0.54906   1.00
C5       0.92417    0.77066    0.54128   1.00
H2       1.20116    0.74723    0.95025   1.00
H2       1.16571    0.72570    0.98530   1.00
H2       1.21374    0.70172    0.97708   1.00
H2       1.01820    0.97737    0.73463   1.00
H2       1.02229    1.00870    0.77880   1.00
H2       1.06621    0.98339    0.75930   1.00
H2       0.78889    0.55124    0.73020   1.00
H2       0.78336    0.52686    0.68199   1.00
H2       0.82819    0.51873    0.71154   1.00
H2       0.89307    0.77413    0.55254   1.00
H2       0.92598    0.78200    0.51007   1.00
H2       0.93266    0.73852    0.54191   1.00
C5       0.63285    0.36782    0.70152   1.00
H2       0.65224    0.35255    0.68054   1.00
H2       0.61582    0.38910    0.68397   1.00
C5       0.60541    0.33806    0.72100   1.00
C5       0.57045    0.32877    0.69436   1.00
H2       0.59441    0.34985    0.74919   1.00
O3       0.71214    0.52000    0.80985   1.00
C4       0.75038    0.47900    0.74982   1.00
C3c      0.72123    0.45757    0.73057   1.00
H1       0.69822    0.47275    0.71524   1.00
C3d      0.78041    0.45865    0.76914   1.00
C3       0.72092    0.41646    0.73121   1.00
O2       0.69432    0.39752    0.70784   1.00
C3       0.77978    0.41773    0.77047   1.00
H1       0.80265    0.40343    0.78681   1.00
C2       0.75028    0.39561    0.75152   1.00
C5       0.73406    0.52121    0.84472   1.00
H2       0.73863    0.55162    0.85532   1.00
H2       0.76325    0.50734    0.84070   1.00
C5       0.71139    0.49871    0.87568   1.00
H2       0.70587    0.46863    0.86462   1.00
H2       0.68246    0.51302    0.87971   1.00
C5       0.73400    0.49738    0.91447   1.00
H2       0.73986    0.52732    0.92555   1.00
H2       0.76230    0.48189    0.91078   1.00
C5       0.70998    0.47555    0.94553   1.00
C5       0.83963    0.48895    0.76674   1.00
C5       0.66009    0.38930    0.72937   1.00
H2       0.83008    0.50912    0.74317   1.00
H2       0.85360    0.46288    0.75313   1.00
H2       0.64632    0.41700    0.73953   1.00
H2       0.66602    0.37105    0.75579   1.00
H2       0.62062    0.30970    0.72639   1.00
H2       0.88656    0.55753    0.75239   1.00
H2       0.91353    0.51237    0.74551   1.00
C2       0.75047    0.60395    0.75264   1.00
C3       0.76804    0.58403    0.72115   1.00
O2       0.79343    0.60326    0.69653   1.00
C3       0.73142    0.58174    0.78177   1.00
H1       0.71682    0.59615    0.80572   1.00
C3a      0.76711    0.54287    0.71998   1.00
H1       0.78261    0.52798    0.69688   1.00
C3b      0.73162    0.54078    0.78118   1.00
C4       0.74962    0.52100    0.75018   1.00
O3       0.80810    0.47833    0.79099   1.00
C5       0.77454    0.61280    0.66121   1.00
H2       0.76370    0.58609    0.64601   1.00
C5       0.80454    0.63326    0.63551   1.00
H2       0.74939    0.63274    0.66647   1.00
H2       0.82354    0.61068    0.62191   1.00
H2       0.82363    0.65093    0.65500   1.00
C5       0.78580    0.65918    0.60396   1.00
H2       0.76453    0.64176    0.58676   1.00
C5       0.81704    0.67547    0.57609   1.00
H2       0.77069    0.68493    0.61714   1.00
C5       0.86961    0.50983    0.79212   1.00
H2       0.88401    0.48785    0.81125   1.00
H2       0.85381    0.53048    0.81164   1.00
C5       0.89998    0.53200    0.76754   1.00
C5       0.93262    0.54775    0.79408   1.00
H2       0.57982    0.30714    0.67090   1.00
C5       0.53730    0.31088    0.71885   1.00
H2       0.55973    0.35677    0.67997   1.00
C5       0.73600    0.46663    0.98105   1.00
H2       0.68435    0.49449    0.95505   1.00
H2       0.69856    0.44707    0.93272   1.00
C5       0.79703    0.69503    0.54095   1.00
H2       0.83563    0.69789    0.59215   1.00
H2       0.83641    0.65063    0.56541   1.00
H2       0.91914    0.56398    0.81979   1.00
H2       0.95094    0.52239    0.80536   1.00
C5       0.95872    0.57583    0.77066   1.00
H2       0.54975    0.29884    0.74723   1.00
H2       0.51470    0.33429    0.72570   1.00
H2       0.52292    0.28626    0.70172   1.00
H2       0.76537    0.48180    0.97737   1.00
H2       0.72120    0.47771    1.00870   1.00
H2       0.74070    0.43379    0.98339   1.00
H2       0.76980    0.71111    0.55124   1.00
H2       0.81801    0.71664    0.52686   1.00
H2       0.78846    0.67181    0.51873   1.00
H2       0.94746    0.60693    0.77413   1.00
H2       0.98993    0.57402    0.78200   1.00
H2       0.95809    0.56734    0.73852   1.00
C5       0.70152    0.63285    0.36782   1.00
H2       0.68054    0.65224    0.35255   1.00
H2       0.68397    0.61582    0.38910   1.00
C5       0.72100    0.60541    0.33806   1.00
C5       0.69436    0.57045    0.32877   1.00
H2       0.74919    0.59441    0.34985   1.00
O3       0.80985    0.71214    0.52000   1.00
C4       0.74982    0.75038    0.47900   1.00
C3c      0.73057    0.72123    0.45757   1.00
H1       0.71524    0.69822    0.47275   1.00
C3d      0.76914    0.78041    0.45865   1.00
C3       0.73121    0.72092    0.41646   1.00
O2       0.70784    0.69432    0.39752   1.00
C3       0.77047    0.77978    0.41773   1.00
H1       0.78681    0.80265    0.40343   1.00
C2       0.75152    0.75028    0.39561   1.00
C5       0.84472    0.73406    0.52121   1.00
H2       0.85532    0.73863    0.55162   1.00
H2       0.84070    0.76325    0.50734   1.00
C5       0.87568    0.71139    0.49871   1.00
H2       0.86462    0.70587    0.46863   1.00
H2       0.87971    0.68246    0.51302   1.00
C5       0.91447    0.73400    0.49738   1.00
H2       0.92555    0.73986    0.52732   1.00
H2       0.91078    0.76230    0.48189   1.00
C5       0.94553    0.70998    0.47555   1.00
C5       0.76674    0.83963    0.48895   1.00
C5       0.72937    0.66009    0.38930   1.00
H2       0.74317    0.83008    0.50912   1.00
H2       0.75313    0.85360    0.46288   1.00
H2       0.73953    0.64632    0.41700   1.00
H2       0.75579    0.66602    0.37105   1.00
H2       0.72639    0.62062    0.30970   1.00
H2       0.75239    0.88656    0.55753   1.00
H2       0.74551    0.91353    0.51237   1.00
C2       0.75264    0.75047    0.60395   1.00
C3       0.72115    0.76804    0.58403   1.00
O2       0.69653    0.79343    0.60326   1.00
C3       0.78177    0.73142    0.58174   1.00
H1       0.80572    0.71682    0.59615   1.00
C3a      0.71998    0.76711    0.54287   1.00
H1       0.69688    0.78261    0.52798   1.00
C3b      0.78118    0.73162    0.54078   1.00
C4       0.75018    0.74962    0.52100   1.00
O3       0.79099    0.80810    0.47833   1.00
C5       0.66121    0.77454    0.61280   1.00
H2       0.64601    0.76370    0.58609   1.00
C5       0.63551    0.80454    0.63326   1.00
H2       0.66647    0.74939    0.63274   1.00
H2       0.62191    0.82354    0.61068   1.00
H2       0.65500    0.82363    0.65093   1.00
C5       0.60396    0.78580    0.65918   1.00
H2       0.58676    0.76453    0.64176   1.00
C5       0.57609    0.81704    0.67547   1.00
H2       0.61714    0.77069    0.68493   1.00
C5       0.79212    0.86961    0.50983   1.00
H2       0.81125    0.88401    0.48785   1.00
H2       0.81164    0.85381    0.53048   1.00
C5       0.76754    0.89998    0.53200   1.00
C5       0.79408    0.93262    0.54775   1.00
H2       0.67090    0.57982    0.30714   1.00
C5       0.71885    0.53730    0.31088   1.00
H2       0.67997    0.55973    0.35677   1.00
C5       0.98105    0.73600    0.46663   1.00
H2       0.95505    0.68435    0.49449   1.00
H2       0.93272    0.69856    0.44707   1.00
C5       0.54095    0.79703    0.69503   1.00
H2       0.59215    0.83563    0.69789   1.00
H2       0.56541    0.83641    0.65063   1.00
H2       0.81979    0.91914    0.56398   1.00
H2       0.80536    0.95094    0.52239   1.00
C5       0.77066    0.95872    0.57583   1.00
H2       0.74723    0.54975    0.29884   1.00
H2       0.72570    0.51470    0.33429   1.00
H2       0.70172    0.52292    0.28626   1.00
H2       0.97737    0.76537    0.48180   1.00
H2       1.00870    0.72120    0.47771   1.00
H2       0.98339    0.74070    0.43379   1.00
H2       0.55124    0.76980    0.71111   1.00
H2       0.52686    0.81801    0.71664   1.00
H2       0.51873    0.78846    0.67181   1.00
H2       0.77413    0.94746    0.60693   1.00
H2       0.78200    0.98993    0.57402   1.00
H2       0.73852    0.95809    0.56734   1.00
C5       0.20152    0.36715    1.13218   1.00
H2       0.18054    0.34776    1.14745   1.00
H2       0.18397    0.38418    1.11090   1.00
C5       0.22100    0.39459    1.16194   1.00
C5       0.19436    0.42955    1.17123   1.00
H2       0.24919    0.40559    1.15015   1.00
O3       0.30985    0.28786    0.98000   1.00
C4       0.24982    0.24962    1.02100   1.00
C3c      0.23057    0.27877    1.04243   1.00
H1       0.21524    0.30178    1.02725   1.00
C3d      0.26914    0.21959    1.04135   1.00
C3       0.23121    0.27908    1.08354   1.00
O2       0.20784    0.30568    1.10248   1.00
C3       0.27047    0.22022    1.08227   1.00
H1       0.28681    0.19735    1.09657   1.00
C2       0.25152    0.24972    1.10439   1.00
C5       0.34472    0.26594    0.97879   1.00
H2       0.35532    0.26137    0.94838   1.00
H2       0.34070    0.23675    0.99266   1.00
C5       0.37568    0.28861    1.00129   1.00
H2       0.36462    0.29413    1.03137   1.00
H2       0.37971    0.31754    0.98698   1.00
C5       0.41447    0.26600    1.00262   1.00
H2       0.42555    0.26014    0.97268   1.00
H2       0.41078    0.23770    1.01811   1.00
C5       0.44553    0.29002    1.02445   1.00
C5       0.26674    0.16037    1.01105   1.00
C5       0.22937    0.33991    1.11070   1.00
H2       0.24317    0.16992    0.99088   1.00
H2       0.25313    0.14640    1.03712   1.00
H2       0.23953    0.35368    1.08300   1.00
H2       0.25579    0.33398    1.12895   1.00
H2       0.22639    0.37938    1.19030   1.00
H2       0.25239    0.11344    0.94247   1.00
H2       0.24551    0.08647    0.98763   1.00
C2       0.25264    0.24953    0.89605   1.00
C3       0.22115    0.23196    0.91597   1.00
O2       0.19653    0.20657    0.89674   1.00
C3       0.28177    0.26858    0.91826   1.00
H1       0.30572    0.28318    0.90385   1.00
C3a      0.21998    0.23289    0.95713   1.00
H1       0.19688    0.21739    0.97202   1.00
C3b      0.28118    0.26838    0.95922   1.00
C4       0.25018    0.25038    0.97900   1.00
O3       0.29099    0.19190    1.02167   1.00
C5       0.16121    0.22546    0.88720   1.00
H2       0.14601    0.23630    0.91391   1.00
C5       0.13551    0.19546    0.86674   1.00
H2       0.16647    0.25061    0.86726   1.00
H2       0.12191    0.17646    0.88932   1.00
H2       0.15500    0.17637    0.84907   1.00
C5       0.10396    0.21420    0.84082   1.00
H2       0.08676    0.23547    0.85824   1.00
C5       0.07609    0.18296    0.82453   1.00
H2       0.11714    0.22931    0.81507   1.00
C5       0.29212    0.13039    0.99017   1.00
H2       0.31125    0.11599    1.01215   1.00
H2       0.31164    0.14619    0.96952   1.00
C5       0.26754    0.10002    0.96800   1.00
C5       0.29408    0.06738    0.95225   1.00
H2       0.17090    0.42018    1.19286   1.00
C5       0.21885    0.46270    1.18912   1.00
H2       0.17997    0.44027    1.14323   1.00
C5       0.48105    0.26400    1.03337   1.00
H2       0.45505    0.31565    1.00551   1.00
H2       0.43272    0.30144    1.05293   1.00
C5       0.04095    0.20297    0.80497   1.00
H2       0.09215    0.16437    0.80211   1.00
H2       0.06541    0.16359    0.84937   1.00
H2       0.31979    0.08086    0.93602   1.00
H2       0.30536    0.04906    0.97761   1.00
C5       0.27066    0.04128    0.92417   1.00
H2       0.24723    0.45025    1.20116   1.00
H2       0.22570    0.48530    1.16571   1.00
H2       0.20172    0.47708    1.21374   1.00
H2       0.47737    0.23463    1.01820   1.00
H2       0.50870    0.27880    1.02229   1.00
H2       0.48339    0.25930    1.06621   1.00
H2       0.05124    0.23020    0.78889   1.00
H2       0.02686    0.18199    0.78336   1.00
H2       0.01873    0.21154    0.82819   1.00
H2       0.27413    0.05254    0.89307   1.00
H2       0.28200    0.01007    0.92598   1.00
H2       0.23852    0.04191    0.93266   1.00
C5       0.36715    0.63218    0.70152   1.00
H2       0.34776    0.64745    0.68054   1.00
H2       0.38418    0.61090    0.68397   1.00
C5       0.39459    0.66194    0.72100   1.00
C5       0.42955    0.67123    0.69436   1.00
H2       0.40559    0.65015    0.74919   1.00
O3       0.28786    0.48000    0.80985   1.00
C4       0.24962    0.52100    0.74982   1.00
C3c      0.27877    0.54243    0.73057   1.00
H1       0.30178    0.52725    0.71524   1.00
C3d      0.21959    0.54135    0.76914   1.00
C3       0.27908    0.58354    0.73121   1.00
O2       0.30568    0.60248    0.70784   1.00
C3       0.22022    0.58227    0.77047   1.00
H1       0.19735    0.59657    0.78681   1.00
C2       0.24972    0.60439    0.75152   1.00
C5       0.26594    0.47879    0.84472   1.00
H2       0.26137    0.44838    0.85532   1.00
H2       0.23675    0.49266    0.84070   1.00
C5       0.28861    0.50129    0.87568   1.00
H2       0.29413    0.53137    0.86462   1.00
H2       0.31754    0.48698    0.87971   1.00
C5       0.26600    0.50262    0.91447   1.00
H2       0.26014    0.47268    0.92555   1.00
H2       0.23770    0.51811    0.91078   1.00
C5       0.29002    0.52445    0.94553   1.00
C5       0.16037    0.51105    0.76674   1.00
C5       0.33991    0.61070    0.72937   1.00
H2       0.16992    0.49088    0.74317   1.00
H2       0.14640    0.53712    0.75313   1.00
H2       0.35368    0.58300    0.73953   1.00
H2       0.33398    0.62895    0.75579   1.00
H2       0.37938    0.69030    0.72639   1.00
H2       0.11344    0.44247    0.75239   1.00
H2       0.08647    0.48763    0.74551   1.00
C2       0.24953    0.39605    0.75264   1.00
C3       0.23196    0.41597    0.72115   1.00
O2       0.20657    0.39674    0.69653   1.00
C3       0.26858    0.41826    0.78177   1.00
H1       0.28318    0.40385    0.80572   1.00
C3a      0.23289    0.45713    0.71998   1.00
H1       0.21739    0.47202    0.69688   1.00
C3b      0.26838    0.45922    0.78118   1.00
C4       0.25038    0.47900    0.75018   1.00
O3       0.19190    0.52167    0.79099   1.00
C5       0.22546    0.38720    0.66121   1.00
H2       0.23630    0.41391    0.64601   1.00
C5       0.19546    0.36674    0.63551   1.00
H2       0.25061    0.36726    0.66647   1.00
H2       0.17646    0.38932    0.62191   1.00
H2       0.17637    0.34907    0.65500   1.00
C5       0.21420    0.34082    0.60396   1.00
H2       0.23547    0.35824    0.58676   1.00
C5       0.18296    0.32453    0.57609   1.00
H2       0.22931    0.31507    0.61714   1.00
C5       0.13039    0.49017    0.79212   1.00
H2       0.11599    0.51215    0.81125   1.00
H2       0.14619    0.46952    0.81164   1.00
C5       0.10002    0.46800    0.76754   1.00
C5       0.06738    0.45225    0.79408   1.00
H2       0.42018    0.69286    0.67090   1.00
C5       0.46270    0.68912    0.71885   1.00
H2       0.44027    0.64323    0.67997   1.00
C5       0.26400    0.53337    0.98105   1.00
H2       0.31565    0.50551    0.95505   1.00
H2       0.30144    0.55293    0.93272   1.00
C5       0.20297    0.30497    0.54095   1.00
H2       0.16437    0.30211    0.59215   1.00
H2       0.16359    0.34937    0.56541   1.00
H2       0.08086    0.43602    0.81979   1.00
H2       0.04906    0.47761    0.80536   1.00
C5       0.04128    0.42417    0.77066   1.00
H2       0.45025    0.70116    0.74723   1.00
H2       0.48530    0.66571    0.72570   1.00
H2       0.47708    0.71374    0.70172   1.00
H2       0.23463    0.51820    0.97737   1.00
H2       0.27880    0.52229    1.00870   1.00
H2       0.25930    0.56621    0.98339   1.00
H2       0.23020    0.28889    0.55124   1.00
H2       0.18199    0.28336    0.52686   1.00
H2       0.21154    0.32819    0.51873   1.00
H2       0.05254    0.39307    0.77413   1.00
H2       0.01007    0.42598    0.78200   1.00
H2       0.04191    0.43266    0.73852   1.00
C5       -0.13218   0.20152    0.63285   1.00
H2       -0.14745   0.18054    0.65224   1.00
H2       -0.11090   0.18397    0.61582   1.00
C5       -0.16194   0.22100    0.60541   1.00
C5       -0.17123   0.19436    0.57045   1.00
H2       -0.15015   0.24919    0.59441   1.00
O3       0.02000    0.30985    0.71214   1.00
C4       -0.02100   0.24982    0.75038   1.00
C3c      -0.04243   0.23057    0.72123   1.00
H1       -0.02725   0.21524    0.69822   1.00
C3d      -0.04135   0.26914    0.78041   1.00
C3       -0.08354   0.23121    0.72092   1.00
O2       -0.10248   0.20784    0.69432   1.00
C3       -0.08227   0.27047    0.77978   1.00
H1       -0.09657   0.28681    0.80265   1.00
C2       -0.10439   0.25152    0.75028   1.00
C5       0.02121    0.34472    0.73406   1.00
H2       0.05162    0.35532    0.73863   1.00
H2       0.00734    0.34070    0.76325   1.00
C5       -0.00129   0.37568    0.71139   1.00
H2       -0.03137   0.36462    0.70587   1.00
H2       0.01302    0.37971    0.68246   1.00
C5       -0.00262   0.41447    0.73400   1.00
H2       0.02732    0.42555    0.73986   1.00
H2       -0.01811   0.41078    0.76230   1.00
C5       -0.02445   0.44553    0.70998   1.00
C5       -0.01105   0.26674    0.83963   1.00
C5       -0.11070   0.22937    0.66009   1.00
H2       0.00912    0.24317    0.83008   1.00
H2       -0.03712   0.25313    0.85360   1.00
H2       -0.08300   0.23953    0.64632   1.00
H2       -0.12895   0.25579    0.66602   1.00
H2       -0.19030   0.22639    0.62062   1.00
H2       0.05753    0.25239    0.88656   1.00
H2       0.01237    0.24551    0.91353   1.00
C2       0.10395    0.25264    0.75047   1.00
C3       0.08403    0.22115    0.76804   1.00
O2       0.10326    0.19653    0.79343   1.00
C3       0.08174    0.28177    0.73142   1.00
H1       0.09615    0.30572    0.71682   1.00
C3a      0.04287    0.21998    0.76711   1.00
H1       0.02798    0.19688    0.78261   1.00
C3b      0.04078    0.28118    0.73162   1.00
C4       0.02100    0.25018    0.74962   1.00
O3       -0.02167   0.29099    0.80810   1.00
C5       0.11280    0.16121    0.77454   1.00
H2       0.08609    0.14601    0.76370   1.00
C5       0.13326    0.13551    0.80454   1.00
H2       0.13274    0.16647    0.74939   1.00
H2       0.11068    0.12191    0.82354   1.00
H2       0.15093    0.15500    0.82363   1.00
C5       0.15918    0.10396    0.78580   1.00
H2       0.14176    0.08676    0.76453   1.00
C5       0.17547    0.07609    0.81704   1.00
H2       0.18493    0.11714    0.77069   1.00
C5       0.00983    0.29212    0.86961   1.00
H2       -0.01215   0.31125    0.88401   1.00
H2       0.03048    0.31164    0.85381   1.00
C5       0.03200    0.26754    0.89998   1.00
C5       0.04775    0.29408    0.93262   1.00
H2       -0.19286   0.17090    0.57982   1.00
C5       -0.18912   0.21885    0.53730   1.00
H2       -0.14323   0.17997    0.55973   1.00
C5       -0.03337   0.48105    0.73600   1.00
H2       -0.00551   0.45505    0.68435   1.00
H2       -0.05293   0.43272    0.69856   1.00
C5       0.19503    0.04095    0.79703   1.00
H2       0.19789    0.09215    0.83563   1.00
H2       0.15063    0.06541    0.83641   1.00
H2       0.06398    0.31979    0.91914   1.00
H2       0.02239    0.30536    0.95094   1.00
C5       0.07583    0.27066    0.95872   1.00
H2       -0.20116   0.24723    0.54975   1.00
H2       -0.16571   0.22570    0.51470   1.00
H2       -0.21374   0.20172    0.52292   1.00
H2       -0.01820   0.47737    0.76537   1.00
H2       -0.02229   0.50870    0.72120   1.00
H2       -0.06621   0.48339    0.74070   1.00
H2       0.21111    0.05124    0.76980   1.00
H2       0.21664    0.02686    0.81801   1.00
H2       0.17181    0.01873    0.78846   1.00
H2       0.10693    0.27413    0.94746   1.00
H2       0.07402    0.28200    0.98993   1.00
H2       0.06734    0.23852    0.95809   1.00
C5       0.63218    0.20152    0.86715   1.00
H2       0.64745    0.18054    0.84776   1.00
H2       0.61090    0.18397    0.88418   1.00
C5       0.66194    0.22100    0.89459   1.00
C5       0.67123    0.19436    0.92955   1.00
H2       0.65015    0.24919    0.90559   1.00
O3       0.48000    0.30985    0.78786   1.00
C4       0.52100    0.24982    0.74962   1.00
C3c      0.54243    0.23057    0.77877   1.00
H1       0.52725    0.21524    0.80178   1.00
C3d      0.54135    0.26914    0.71959   1.00
C3       0.58354    0.23121    0.77908   1.00
O2       0.60248    0.20784    0.80568   1.00
C3       0.58227    0.27047    0.72022   1.00
H1       0.59657    0.28681    0.69735   1.00
C2       0.60439    0.25152    0.74972   1.00
C5       0.47879    0.34472    0.76594   1.00
H2       0.44838    0.35532    0.76137   1.00
H2       0.49266    0.34070    0.73675   1.00
C5       0.50129    0.37568    0.78861   1.00
H2       0.53137    0.36462    0.79413   1.00
H2       0.48698    0.37971    0.81754   1.00
C5       0.50262    0.41447    0.76600   1.00
H2       0.47268    0.42555    0.76014   1.00
H2       0.51811    0.41078    0.73770   1.00
C5       0.52445    0.44553    0.79002   1.00
C5       0.51105    0.26674    0.66037   1.00
C5       0.61070    0.22937    0.83991   1.00
H2       0.49088    0.24317    0.66992   1.00
H2       0.53712    0.25313    0.64640   1.00
H2       0.58300    0.23953    0.85368   1.00
H2       0.62895    0.25579    0.83398   1.00
H2       0.69030    0.22639    0.87938   1.00
H2       0.44247    0.25239    0.61344   1.00
H2       0.48763    0.24551    0.58647   1.00
C2       0.39605    0.25264    0.74953   1.00
C3       0.41597    0.22115    0.73196   1.00
O2       0.39674    0.19653    0.70657   1.00
C3       0.41826    0.28177    0.76858   1.00
H1       0.40385    0.30572    0.78318   1.00
C3a      0.45713    0.21998    0.73289   1.00
H1       0.47202    0.19688    0.71739   1.00
C3b      0.45922    0.28118    0.76838   1.00
C4       0.47900    0.25018    0.75038   1.00
O3       0.52167    0.29099    0.69190   1.00
C5       0.38720    0.16121    0.72546   1.00
H2       0.41391    0.14601    0.73630   1.00
C5       0.36674    0.13551    0.69546   1.00
H2       0.36726    0.16647    0.75061   1.00
H2       0.38932    0.12191    0.67646   1.00
H2       0.34907    0.15500    0.67637   1.00
C5       0.34082    0.10396    0.71420   1.00
H2       0.35824    0.08676    0.73547   1.00
C5       0.32453    0.07609    0.68296   1.00
H2       0.31507    0.11714    0.72931   1.00
C5       0.49017    0.29212    0.63039   1.00
H2       0.51215    0.31125    0.61599   1.00
H2       0.46952    0.31164    0.64619   1.00
C5       0.46800    0.26754    0.60002   1.00
C5       0.45225    0.29408    0.56738   1.00
H2       0.69286    0.17090    0.92018   1.00
C5       0.68912    0.21885    0.96270   1.00
H2       0.64323    0.17997    0.94027   1.00
C5       0.53337    0.48105    0.76400   1.00
H2       0.50551    0.45505    0.81565   1.00
H2       0.55293    0.43272    0.80144   1.00
C5       0.30497    0.04095    0.70297   1.00
H2       0.30211    0.09215    0.66437   1.00
H2       0.34937    0.06541    0.66359   1.00
H2       0.43602    0.31979    0.58086   1.00
H2       0.47761    0.30536    0.54906   1.00
C5       0.42417    0.27066    0.54128   1.00
H2       0.70116    0.24723    0.95025   1.00
H2       0.66571    0.22570    0.98530   1.00
H2       0.71374    0.20172    0.97708   1.00
H2       0.51820    0.47737    0.73463   1.00
H2       0.52229    0.50870    0.77880   1.00
H2       0.56621    0.48339    0.75930   1.00
H2       0.28889    0.05124    0.73020   1.00
H2       0.28336    0.02686    0.68199   1.00
H2       0.32819    0.01873    0.71154   1.00
H2       0.39307    0.27413    0.55254   1.00
H2       0.42598    0.28200    0.51007   1.00
H2       0.43266    0.23852    0.54191   1.00
C5       0.13285    -0.13218   0.70152   1.00
H2       0.15224    -0.14745   0.68054   1.00
H2       0.11582    -0.11090   0.68397   1.00
C5       0.10541    -0.16194   0.72100   1.00
C5       0.07045    -0.17123   0.69436   1.00
H2       0.09441    -0.15015   0.74919   1.00
O3       0.21214    0.02000    0.80985   1.00
C4       0.25038    -0.02100   0.74982   1.00
C3c      0.22123    -0.04243   0.73057   1.00
H1       0.19822    -0.02725   0.71524   1.00
C3d      0.28041    -0.04135   0.76914   1.00
C3       0.22092    -0.08354   0.73121   1.00
O2       0.19432    -0.10248   0.70784   1.00
C3       0.27978    -0.08227   0.77047   1.00
H1       0.30265    -0.09657   0.78681   1.00
C2       0.25028    -0.10439   0.75152   1.00
C5       0.23406    0.02121    0.84472   1.00
H2       0.23863    0.05162    0.85532   1.00
H2       0.26325    0.00734    0.84070   1.00
C5       0.21139    -0.00129   0.87568   1.00
H2       0.20587    -0.03137   0.86462   1.00
H2       0.18246    0.01302    0.87971   1.00
C5       0.23400    -0.00262   0.91447   1.00
H2       0.23986    0.02732    0.92555   1.00
H2       0.26230    -0.01811   0.91078   1.00
C5       0.20998    -0.02445   0.94553   1.00
C5       0.33963    -0.01105   0.76674   1.00
C5       0.16009    -0.11070   0.72937   1.00
H2       0.33008    0.00912    0.74317   1.00
H2       0.35360    -0.03712   0.75313   1.00
H2       0.14632    -0.08300   0.73953   1.00
H2       0.16602    -0.12895   0.75579   1.00
H2       0.12062    -0.19030   0.72639   1.00
H2       0.38656    0.05753    0.75239   1.00
H2       0.41353    0.01237    0.74551   1.00
C2       0.25047    0.10395    0.75264   1.00
C3       0.26804    0.08403    0.72115   1.00
O2       0.29343    0.10326    0.69653   1.00
C3       0.23142    0.08174    0.78177   1.00
H1       0.21682    0.09615    0.80572   1.00
C3a      0.26711    0.04287    0.71998   1.00
H1       0.28261    0.02798    0.69688   1.00
C3b      0.23162    0.04078    0.78118   1.00
C4       0.24962    0.02100    0.75018   1.00
O3       0.30810    -0.02167   0.79099   1.00
C5       0.27454    0.11280    0.66121   1.00
H2       0.26370    0.08609    0.64601   1.00
C5       0.30454    0.13326    0.63551   1.00
H2       0.24939    0.13274    0.66647   1.00
H2       0.32354    0.11068    0.62191   1.00
H2       0.32363    0.15093    0.65500   1.00
C5       0.28580    0.15918    0.60396   1.00
H2       0.26453    0.14176    0.58676   1.00
C5       0.31704    0.17547    0.57609   1.00
H2       0.27069    0.18493    0.61714   1.00
C5       0.36961    0.00983    0.79212   1.00
H2       0.38401    -0.01215   0.81125   1.00
H2       0.35381    0.03048    0.81164   1.00
C5       0.39998    0.03200    0.76754   1.00
C5       0.43262    0.04775    0.79408   1.00
H2       0.07982    -0.19286   0.67090   1.00
C5       0.03730    -0.18912   0.71885   1.00
H2       0.05973    -0.14323   0.67997   1.00
C5       0.23600    -0.03337   0.98105   1.00
H2       0.18435    -0.00551   0.95505   1.00
H2       0.19856    -0.05293   0.93272   1.00
C5       0.29703    0.19503    0.54095   1.00
H2       0.33563    0.19789    0.59215   1.00
H2       0.33641    0.15063    0.56541   1.00
H2       0.41914    0.06398    0.81979   1.00
H2       0.45094    0.02239    0.80536   1.00
C5       0.45872    0.07583    0.77066   1.00
H2       0.04975    -0.20116   0.74723   1.00
H2       0.01470    -0.16571   0.72570   1.00
H2       0.02292    -0.21374   0.70172   1.00
H2       0.26537    -0.01820   0.97737   1.00
H2       0.22120    -0.02229   1.00870   1.00
H2       0.24070    -0.06621   0.98339   1.00
H2       0.26980    0.21111    0.55124   1.00
H2       0.31801    0.21664    0.52686   1.00
H2       0.28846    0.17181    0.51873   1.00
H2       0.44746    0.10693    0.77413   1.00
H2       0.48993    0.07402    0.78200   1.00
H2       0.45809    0.06734    0.73852   1.00
C5       0.20152    0.13285    0.36782   1.00
H2       0.18054    0.15224    0.35255   1.00
H2       0.18397    0.11582    0.38910   1.00
C5       0.22100    0.10541    0.33806   1.00
C5       0.19436    0.07045    0.32877   1.00
H2       0.24919    0.09441    0.34985   1.00
O3       0.30985    0.21214    0.52000   1.00
C4       0.24982    0.25038    0.47900   1.00
C3c      0.23057    0.22123    0.45757   1.00
H1       0.21524    0.19822    0.47275   1.00
C3d      0.26914    0.28041    0.45865   1.00
C3       0.23121    0.22092    0.41646   1.00
O2       0.20784    0.19432    0.39752   1.00
C3       0.27047    0.27978    0.41773   1.00
H1       0.28681    0.30265    0.40343   1.00
C2       0.25152    0.25028    0.39561   1.00
C5       0.34472    0.23406    0.52121   1.00
H2       0.35532    0.23863    0.55162   1.00
H2       0.34070    0.26325    0.50734   1.00
C5       0.37568    0.21139    0.49871   1.00
H2       0.36462    0.20587    0.46863   1.00
H2       0.37971    0.18246    0.51302   1.00
C5       0.41447    0.23400    0.49738   1.00
H2       0.42555    0.23986    0.52732   1.00
H2       0.41078    0.26230    0.48189   1.00
C5       0.44553    0.20998    0.47555   1.00
C5       0.26674    0.33963    0.48895   1.00
C5       0.22937    0.16009    0.38930   1.00
H2       0.24317    0.33008    0.50912   1.00
H2       0.25313    0.35360    0.46288   1.00
H2       0.23953    0.14632    0.41700   1.00
H2       0.25579    0.16602    0.37105   1.00
H2       0.22639    0.12062    0.30970   1.00
H2       0.25239    0.38656    0.55753   1.00
H2       0.24551    0.41353    0.51237   1.00
C2       0.25264    0.25047    0.60395   1.00
C3       0.22115    0.26804    0.58403   1.00
O2       0.19653    0.29343    0.60326   1.00
C3       0.28177    0.23142    0.58174   1.00
H1       0.30572    0.21682    0.59615   1.00
C3a      0.21998    0.26711    0.54287   1.00
H1       0.19688    0.28261    0.52798   1.00
C3b      0.28118    0.23162    0.54078   1.00
C4       0.25018    0.24962    0.52100   1.00
O3       0.29099    0.30810    0.47833   1.00
C5       0.16121    0.27454    0.61280   1.00
H2       0.14601    0.26370    0.58609   1.00
C5       0.13551    0.30454    0.63326   1.00
H2       0.16647    0.24939    0.63274   1.00
H2       0.12191    0.32354    0.61068   1.00
H2       0.15500    0.32363    0.65093   1.00
C5       0.10396    0.28580    0.65918   1.00
H2       0.08676    0.26453    0.64176   1.00
C5       0.07609    0.31704    0.67547   1.00
H2       0.11714    0.27069    0.68493   1.00
C5       0.29212    0.36961    0.50983   1.00
H2       0.31125    0.38401    0.48785   1.00
H2       0.31164    0.35381    0.53048   1.00
C5       0.26754    0.39998    0.53200   1.00
C5       0.29408    0.43262    0.54775   1.00
H2       0.17090    0.07982    0.30714   1.00
C5       0.21885    0.03730    0.31088   1.00
H2       0.17997    0.05973    0.35677   1.00
C5       0.48105    0.23600    0.46663   1.00
H2       0.45505    0.18435    0.49449   1.00
H2       0.43272    0.19856    0.44707   1.00
C5       0.04095    0.29703    0.69503   1.00
H2       0.09215    0.33563    0.69789   1.00
H2       0.06541    0.33641    0.65063   1.00
H2       0.31979    0.41914    0.56398   1.00
H2       0.30536    0.45094    0.52239   1.00
C5       0.27066    0.45872    0.57583   1.00
H2       0.24723    0.04975    0.29884   1.00
H2       0.22570    0.01470    0.33429   1.00
H2       0.20172    0.02292    0.28626   1.00
H2       0.47737    0.26537    0.48180   1.00
H2       0.50870    0.22120    0.47771   1.00
H2       0.48339    0.24070    0.43379   1.00
H2       0.05124    0.26980    0.71111   1.00
H2       0.02686    0.31801    0.71664   1.00
H2       0.01873    0.28846    0.67181   1.00
H2       0.27413    0.44746    0.60693   1.00
H2       0.28200    0.48993    0.57402   1.00
H2       0.23852    0.45809    0.56734   1.00
C5       0.20152    0.86715    0.63218   1.00
H2       0.18054    0.84776    0.64745   1.00
H2       0.18397    0.88418    0.61090   1.00
C5       0.22100    0.89459    0.66194   1.00
C5       0.19436    0.92955    0.67123   1.00
H2       0.24919    0.90559    0.65015   1.00
O3       0.30985    0.78786    0.48000   1.00
C4       0.24982    0.74962    0.52100   1.00
C3c      0.23057    0.77877    0.54243   1.00
H1       0.21524    0.80178    0.52725   1.00
C3d      0.26914    0.71959    0.54135   1.00
C3       0.23121    0.77908    0.58354   1.00
O2       0.20784    0.80568    0.60248   1.00
C3       0.27047    0.72022    0.58227   1.00
H1       0.28681    0.69735    0.59657   1.00
C2       0.25152    0.74972    0.60439   1.00
C5       0.34472    0.76594    0.47879   1.00
H2       0.35532    0.76137    0.44838   1.00
H2       0.34070    0.73675    0.49266   1.00
C5       0.37568    0.78861    0.50129   1.00
H2       0.36462    0.79413    0.53137   1.00
H2       0.37971    0.81754    0.48698   1.00
C5       0.41447    0.76600    0.50262   1.00
H2       0.42555    0.76014    0.47268   1.00
H2       0.41078    0.73770    0.51811   1.00
C5       0.44553    0.79002    0.52445   1.00
C5       0.26674    0.66037    0.51105   1.00
C5       0.22937    0.83991    0.61070   1.00
H2       0.24317    0.66992    0.49088   1.00
H2       0.25313    0.64640    0.53712   1.00
H2       0.23953    0.85368    0.58300   1.00
H2       0.25579    0.83398    0.62895   1.00
H2       0.22639    0.87938    0.69030   1.00
H2       0.25239    0.61344    0.44247   1.00
H2       0.24551    0.58647    0.48763   1.00
C2       0.25264    0.74953    0.39605   1.00
C3       0.22115    0.73196    0.41597   1.00
O2       0.19653    0.70657    0.39674   1.00
C3       0.28177    0.76858    0.41826   1.00
H1       0.30572    0.78318    0.40385   1.00
C3a      0.21998    0.73289    0.45713   1.00
H1       0.19688    0.71739    0.47202   1.00
C3b      0.28118    0.76838    0.45922   1.00
C4       0.25018    0.75038    0.47900   1.00
O3       0.29099    0.69190    0.52167   1.00
C5       0.16121    0.72546    0.38720   1.00
H2       0.14601    0.73630    0.41391   1.00
C5       0.13551    0.69546    0.36674   1.00
H2       0.16647    0.75061    0.36726   1.00
H2       0.12191    0.67646    0.38932   1.00
H2       0.15500    0.67637    0.34907   1.00
C5       0.10396    0.71420    0.34082   1.00
H2       0.08676    0.73547    0.35824   1.00
C5       0.07609    0.68296    0.32453   1.00
H2       0.11714    0.72931    0.31507   1.00
C5       0.29212    0.63039    0.49017   1.00
H2       0.31125    0.61599    0.51215   1.00
H2       0.31164    0.64619    0.46952   1.00
C5       0.26754    0.60002    0.46800   1.00
C5       0.29408    0.56738    0.45225   1.00
H2       0.17090    0.92018    0.69286   1.00
C5       0.21885    0.96270    0.68912   1.00
H2       0.17997    0.94027    0.64323   1.00
C5       0.48105    0.76400    0.53337   1.00
H2       0.45505    0.81565    0.50551   1.00
H2       0.43272    0.80144    0.55293   1.00
C5       0.04095    0.70297    0.30497   1.00
H2       0.09215    0.66437    0.30211   1.00
H2       0.06541    0.66359    0.34937   1.00
H2       0.31979    0.58086    0.43602   1.00
H2       0.30536    0.54906    0.47761   1.00
C5       0.27066    0.54128    0.42417   1.00
H2       0.24723    0.95025    0.70116   1.00
H2       0.22570    0.98530    0.66571   1.00
H2       0.20172    0.97708    0.71374   1.00
H2       0.47737    0.73463    0.51820   1.00
H2       0.50870    0.77880    0.52229   1.00
H2       0.48339    0.75930    0.56621   1.00
H2       0.05124    0.73020    0.28889   1.00
H2       0.02686    0.68199    0.28336   1.00
H2       0.01873    0.71154    0.32819   1.00
H2       0.27413    0.55254    0.39307   1.00
H2       0.28200    0.51007    0.42598   1.00
H2       0.23852    0.54191    0.43266   1.00
C5       0.36715    1.13218    0.20152   1.00
H2       0.34776    1.14745    0.18054   1.00
H2       0.38418    1.11090    0.18397   1.00
C5       0.39459    1.16194    0.22100   1.00
C5       0.42955    1.17123    0.19436   1.00
H2       0.40559    1.15015    0.24919   1.00
O3       0.28786    0.98000    0.30985   1.00
C4       0.24962    1.02100    0.24982   1.00
C3c      0.27877    1.04243    0.23057   1.00
H1       0.30178    1.02725    0.21524   1.00
C3d      0.21959    1.04135    0.26914   1.00
C3       0.27908    1.08354    0.23121   1.00
O2       0.30568    1.10248    0.20784   1.00
C3       0.22022    1.08227    0.27047   1.00
H1       0.19735    1.09657    0.28681   1.00
C2       0.24972    1.10439    0.25152   1.00
C5       0.26594    0.97879    0.34472   1.00
H2       0.26137    0.94838    0.35532   1.00
H2       0.23675    0.99266    0.34070   1.00
C5       0.28861    1.00129    0.37568   1.00
H2       0.29413    1.03137    0.36462   1.00
H2       0.31754    0.98698    0.37971   1.00
C5       0.26600    1.00262    0.41447   1.00
H2       0.26014    0.97268    0.42555   1.00
H2       0.23770    1.01811    0.41078   1.00
C5       0.29002    1.02445    0.44553   1.00
C5       0.16037    1.01105    0.26674   1.00
C5       0.33991    1.11070    0.22937   1.00
H2       0.16992    0.99088    0.24317   1.00
H2       0.14640    1.03712    0.25313   1.00
H2       0.35368    1.08300    0.23953   1.00
H2       0.33398    1.12895    0.25579   1.00
H2       0.37938    1.19030    0.22639   1.00
H2       0.11344    0.94247    0.25239   1.00
H2       0.08647    0.98763    0.24551   1.00
C2       0.24953    0.89605    0.25264   1.00
C3       0.23196    0.91597    0.22115   1.00
O2       0.20657    0.89674    0.19653   1.00
C3       0.26858    0.91826    0.28177   1.00
H1       0.28318    0.90385    0.30572   1.00
C3a      0.23289    0.95713    0.21998   1.00
H1       0.21739    0.97202    0.19688   1.00
C3b      0.26838    0.95922    0.28118   1.00
C4       0.25038    0.97900    0.25018   1.00
O3       0.19190    1.02167    0.29099   1.00
C5       0.22546    0.88720    0.16121   1.00
H2       0.23630    0.91391    0.14601   1.00
C5       0.19546    0.86674    0.13551   1.00
H2       0.25061    0.86726    0.16647   1.00
H2       0.17646    0.88932    0.12191   1.00
H2       0.17637    0.84907    0.15500   1.00
C5       0.21420    0.84082    0.10396   1.00
H2       0.23547    0.85824    0.08676   1.00
C5       0.18296    0.82453    0.07609   1.00
H2       0.22931    0.81507    0.11714   1.00
C5       0.13039    0.99017    0.29212   1.00
H2       0.11599    1.01215    0.31125   1.00
H2       0.14619    0.96952    0.31164   1.00
C5       0.10002    0.96800    0.26754   1.00
C5       0.06738    0.95225    0.29408   1.00
H2       0.42018    1.19286    0.17090   1.00
C5       0.46270    1.18912    0.21885   1.00
H2       0.44027    1.14323    0.17997   1.00
C5       0.26400    1.03337    0.48105   1.00
H2       0.31565    1.00551    0.45505   1.00
H2       0.30144    1.05293    0.43272   1.00
C5       0.20297    0.80497    0.04095   1.00
H2       0.16437    0.80211    0.09215   1.00
H2       0.16359    0.84937    0.06541   1.00
H2       0.08086    0.93602    0.31979   1.00
H2       0.04906    0.97761    0.30536   1.00
C5       0.04128    0.92417    0.27066   1.00
H2       0.45025    1.20116    0.24723   1.00
H2       0.48530    1.16571    0.22570   1.00
H2       0.47708    1.21374    0.20172   1.00
H2       0.23463    1.01820    0.47737   1.00
H2       0.27880    1.02229    0.50870   1.00
H2       0.25930    1.06621    0.48339   1.00
H2       0.23020    0.78889    0.05124   1.00
H2       0.18199    0.78336    0.02686   1.00
H2       0.21154    0.82819    0.01873   1.00
H2       0.05254    0.89307    0.27413   1.00
H2       0.01007    0.92598    0.28200   1.00
H2       0.04191    0.93266    0.23852   1.00
C5       -0.13218   0.70152    0.13285   1.00
H2       -0.14745   0.68054    0.15224   1.00
H2       -0.11090   0.68397    0.11582   1.00
C5       -0.16194   0.72100    0.10541   1.00
C5       -0.17123   0.69436    0.07045   1.00
H2       -0.15015   0.74919    0.09441   1.00
O3       0.02000    0.80985    0.21214   1.00
C4       -0.02100   0.74982    0.25038   1.00
C3c      -0.04243   0.73057    0.22123   1.00
H1       -0.02725   0.71524    0.19822   1.00
C3d      -0.04135   0.76914    0.28041   1.00
C3       -0.08354   0.73121    0.22092   1.00
O2       -0.10248   0.70784    0.19432   1.00
C3       -0.08227   0.77047    0.27978   1.00
H1       -0.09657   0.78681    0.30265   1.00
C2       -0.10439   0.75152    0.25028   1.00
C5       0.02121    0.84472    0.23406   1.00
H2       0.05162    0.85532    0.23863   1.00
H2       0.00734    0.84070    0.26325   1.00
C5       -0.00129   0.87568    0.21139   1.00
H2       -0.03137   0.86462    0.20587   1.00
H2       0.01302    0.87971    0.18246   1.00
C5       -0.00262   0.91447    0.23400   1.00
H2       0.02732    0.92555    0.23986   1.00
H2       -0.01811   0.91078    0.26230   1.00
C5       -0.02445   0.94553    0.20998   1.00
C5       -0.01105   0.76674    0.33963   1.00
C5       -0.11070   0.72937    0.16009   1.00
H2       0.00912    0.74317    0.33008   1.00
H2       -0.03712   0.75313    0.35360   1.00
H2       -0.08300   0.73953    0.14632   1.00
H2       -0.12895   0.75579    0.16602   1.00
H2       -0.19030   0.72639    0.12062   1.00
H2       0.05753    0.75239    0.38656   1.00
H2       0.01237    0.74551    0.41353   1.00
C2       0.10395    0.75264    0.25047   1.00
C3       0.08403    0.72115    0.26804   1.00
O2       0.10326    0.69653    0.29343   1.00
C3       0.08174    0.78177    0.23142   1.00
H1       0.09615    0.80572    0.21682   1.00
C3a      0.04287    0.71998    0.26711   1.00
H1       0.02798    0.69688    0.28261   1.00
C3b      0.04078    0.78118    0.23162   1.00
C4       0.02100    0.75018    0.24962   1.00
O3       -0.02167   0.79099    0.30810   1.00
C5       0.11280    0.66121    0.27454   1.00
H2       0.08609    0.64601    0.26370   1.00
C5       0.13326    0.63551    0.30454   1.00
H2       0.13274    0.66647    0.24939   1.00
H2       0.11068    0.62191    0.32354   1.00
H2       0.15093    0.65500    0.32363   1.00
C5       0.15918    0.60396    0.28580   1.00
H2       0.14176    0.58676    0.26453   1.00
C5       0.17547    0.57609    0.31704   1.00
H2       0.18493    0.61714    0.27069   1.00
C5       0.00983    0.79212    0.36961   1.00
H2       -0.01215   0.81125    0.38401   1.00
H2       0.03048    0.81164    0.35381   1.00
C5       0.03200    0.76754    0.39998   1.00
C5       0.04775    0.79408    0.43262   1.00
H2       -0.19286   0.67090    0.07982   1.00
C5       -0.18912   0.71885    0.03730   1.00
H2       -0.14323   0.67997    0.05973   1.00
C5       -0.03337   0.98105    0.23600   1.00
H2       -0.00551   0.95505    0.18435   1.00
H2       -0.05293   0.93272    0.19856   1.00
C5       0.19503    0.54095    0.29703   1.00
H2       0.19789    0.59215    0.33563   1.00
H2       0.15063    0.56541    0.33641   1.00
H2       0.06398    0.81979    0.41914   1.00
H2       0.02239    0.80536    0.45094   1.00
C5       0.07583    0.77066    0.45872   1.00
H2       -0.20116   0.74723    0.04975   1.00
H2       -0.16571   0.72570    0.01470   1.00
H2       -0.21374   0.70172    0.02292   1.00
H2       -0.01820   0.97737    0.26537   1.00
H2       -0.02229   1.00870    0.22120   1.00
H2       -0.06621   0.98339    0.24070   1.00
H2       0.21111    0.55124    0.26980   1.00
H2       0.21664    0.52686    0.31801   1.00
H2       0.17181    0.51873    0.28846   1.00
H2       0.10693    0.77413    0.44746   1.00
H2       0.07402    0.78200    0.48993   1.00
H2       0.06734    0.73852    0.45809   1.00
C5       0.63218    0.70152    0.36715   1.00
H2       0.64745    0.68054    0.34776   1.00
H2       0.61090    0.68397    0.38418   1.00
C5       0.66194    0.72100    0.39459   1.00
C5       0.67123    0.69436    0.42955   1.00
H2       0.65015    0.74919    0.40559   1.00
O3       0.48000    0.80985    0.28786   1.00
C4       0.52100    0.74982    0.24962   1.00
C3c      0.54243    0.73057    0.27877   1.00
H1       0.52725    0.71524    0.30178   1.00
C3d      0.54135    0.76914    0.21959   1.00
C3       0.58354    0.73121    0.27908   1.00
O2       0.60248    0.70784    0.30568   1.00
C3       0.58227    0.77047    0.22022   1.00
H1       0.59657    0.78681    0.19735   1.00
C2       0.60439    0.75152    0.24972   1.00
C5       0.47879    0.84472    0.26594   1.00
H2       0.44838    0.85532    0.26137   1.00
H2       0.49266    0.84070    0.23675   1.00
C5       0.50129    0.87568    0.28861   1.00
H2       0.53137    0.86462    0.29413   1.00
H2       0.48698    0.87971    0.31754   1.00
C5       0.50262    0.91447    0.26600   1.00
H2       0.47268    0.92555    0.26014   1.00
H2       0.51811    0.91078    0.23770   1.00
C5       0.52445    0.94553    0.29002   1.00
C5       0.51105    0.76674    0.16037   1.00
C5       0.61070    0.72937    0.33991   1.00
H2       0.49088    0.74317    0.16992   1.00
H2       0.53712    0.75313    0.14640   1.00
H2       0.58300    0.73953    0.35368   1.00
H2       0.62895    0.75579    0.33398   1.00
H2       0.69030    0.72639    0.37938   1.00
H2       0.44247    0.75239    0.11344   1.00
H2       0.48763    0.74551    0.08647   1.00
C2       0.39605    0.75264    0.24953   1.00
C3       0.41597    0.72115    0.23196   1.00
O2       0.39674    0.69653    0.20657   1.00
C3       0.41826    0.78177    0.26858   1.00
H1       0.40385    0.80572    0.28318   1.00
C3a      0.45713    0.71998    0.23289   1.00
H1       0.47202    0.69688    0.21739   1.00
C3b      0.45922    0.78118    0.26838   1.00
C4       0.47900    0.75018    0.25038   1.00
O3       0.52167    0.79099    0.19190   1.00
C5       0.38720    0.66121    0.22546   1.00
H2       0.41391    0.64601    0.23630   1.00
C5       0.36674    0.63551    0.19546   1.00
H2       0.36726    0.66647    0.25061   1.00
H2       0.38932    0.62191    0.17646   1.00
H2       0.34907    0.65500    0.17637   1.00
C5       0.34082    0.60396    0.21420   1.00
H2       0.35824    0.58676    0.23547   1.00
C5       0.32453    0.57609    0.18296   1.00
H2       0.31507    0.61714    0.22931   1.00
C5       0.49017    0.79212    0.13039   1.00
H2       0.51215    0.81125    0.11599   1.00
H2       0.46952    0.81164    0.14619   1.00
C5       0.46800    0.76754    0.10002   1.00
C5       0.45225    0.79408    0.06738   1.00
H2       0.69286    0.67090    0.42018   1.00
C5       0.68912    0.71885    0.46270   1.00
H2       0.64323    0.67997    0.44027   1.00
C5       0.53337    0.98105    0.26400   1.00
H2       0.50551    0.95505    0.31565   1.00
H2       0.55293    0.93272    0.30144   1.00
C5       0.30497    0.54095    0.20297   1.00
H2       0.30211    0.59215    0.16437   1.00
H2       0.34937    0.56541    0.16359   1.00
H2       0.43602    0.81979    0.08086   1.00
H2       0.47761    0.80536    0.04906   1.00
C5       0.42417    0.77066    0.04128   1.00
H2       0.70116    0.74723    0.45025   1.00
H2       0.66571    0.72570    0.48530   1.00
H2       0.71374    0.70172    0.47708   1.00
H2       0.51820    0.97737    0.23463   1.00
H2       0.52229    1.00870    0.27880   1.00
H2       0.56621    0.98339    0.25930   1.00
H2       0.28889    0.55124    0.23020   1.00
H2       0.28336    0.52686    0.18199   1.00
H2       0.32819    0.51873    0.21154   1.00
H2       0.39307    0.77413    0.05254   1.00
H2       0.42598    0.78200    0.01007   1.00
H2       0.43266    0.73852    0.04191   1.00
C5       0.13285    0.36782    0.20152   1.00
H2       0.15224    0.35255    0.18054   1.00
H2       0.11582    0.38910    0.18397   1.00
C5       0.10541    0.33806    0.22100   1.00
C5       0.07045    0.32877    0.19436   1.00
H2       0.09441    0.34985    0.24919   1.00
O3       0.21214    0.52000    0.30985   1.00
C4       0.25038    0.47900    0.24982   1.00
C3c      0.22123    0.45757    0.23057   1.00
H1       0.19822    0.47275    0.21524   1.00
C3d      0.28041    0.45865    0.26914   1.00
C3       0.22092    0.41646    0.23121   1.00
O2       0.19432    0.39752    0.20784   1.00
C3       0.27978    0.41773    0.27047   1.00
H1       0.30265    0.40343    0.28681   1.00
C2       0.25028    0.39561    0.25152   1.00
C5       0.23406    0.52121    0.34472   1.00
H2       0.23863    0.55162    0.35532   1.00
H2       0.26325    0.50734    0.34070   1.00
C5       0.21139    0.49871    0.37568   1.00
H2       0.20587    0.46863    0.36462   1.00
H2       0.18246    0.51302    0.37971   1.00
C5       0.23400    0.49738    0.41447   1.00
H2       0.23986    0.52732    0.42555   1.00
H2       0.26230    0.48189    0.41078   1.00
C5       0.20998    0.47555    0.44553   1.00
C5       0.33963    0.48895    0.26674   1.00
C5       0.16009    0.38930    0.22937   1.00
H2       0.33008    0.50912    0.24317   1.00
H2       0.35360    0.46288    0.25313   1.00
H2       0.14632    0.41700    0.23953   1.00
H2       0.16602    0.37105    0.25579   1.00
H2       0.12062    0.30970    0.22639   1.00
H2       0.38656    0.55753    0.25239   1.00
H2       0.41353    0.51237    0.24551   1.00
C2       0.25047    0.60395    0.25264   1.00
C3       0.26804    0.58403    0.22115   1.00
O2       0.29343    0.60326    0.19653   1.00
C3       0.23142    0.58174    0.28177   1.00
H1       0.21682    0.59615    0.30572   1.00
C3a      0.26711    0.54287    0.21998   1.00
H1       0.28261    0.52798    0.19688   1.00
C3b      0.23162    0.54078    0.28118   1.00
C4       0.24962    0.52100    0.25018   1.00
O3       0.30810    0.47833    0.29099   1.00
C5       0.27454    0.61280    0.16121   1.00
H2       0.26370    0.58609    0.14601   1.00
C5       0.30454    0.63326    0.13551   1.00
H2       0.24939    0.63274    0.16647   1.00
H2       0.32354    0.61068    0.12191   1.00
H2       0.32363    0.65093    0.15500   1.00
C5       0.28580    0.65918    0.10396   1.00
H2       0.26453    0.64176    0.08676   1.00
C5       0.31704    0.67547    0.07609   1.00
H2       0.27069    0.68493    0.11714   1.00
C5       0.36961    0.50983    0.29212   1.00
H2       0.38401    0.48785    0.31125   1.00
H2       0.35381    0.53048    0.31164   1.00
C5       0.39998    0.53200    0.26754   1.00
C5       0.43262    0.54775    0.29408   1.00
H2       0.07982    0.30714    0.17090   1.00
C5       0.03730    0.31088    0.21885   1.00
H2       0.05973    0.35677    0.17997   1.00
C5       0.23600    0.46663    0.48105   1.00
H2       0.18435    0.49449    0.45505   1.00
H2       0.19856    0.44707    0.43272   1.00
C5       0.29703    0.69503    0.04095   1.00
H2       0.33563    0.69789    0.09215   1.00
H2       0.33641    0.65063    0.06541   1.00
H2       0.41914    0.56398    0.31979   1.00
H2       0.45094    0.52239    0.30536   1.00
C5       0.45872    0.57583    0.27066   1.00
H2       0.04975    0.29884    0.24723   1.00
H2       0.01470    0.33429    0.22570   1.00
H2       0.02292    0.28626    0.20172   1.00
H2       0.26537    0.48180    0.47737   1.00
H2       0.22120    0.47771    0.50870   1.00
H2       0.24070    0.43379    0.48339   1.00
H2       0.26980    0.71111    0.05124   1.00
H2       0.31801    0.71664    0.02686   1.00
H2       0.28846    0.67181    0.01873   1.00
H2       0.44746    0.60693    0.27413   1.00
H2       0.48993    0.57402    0.28200   1.00
H2       0.45809    0.56734    0.23852   1.00
C5       0.20152    0.63285    -0.13218   1.00
H2       0.18054    0.65224    -0.14745   1.00
H2       0.18397    0.61582    -0.11090   1.00
C5       0.22100    0.60541    -0.16194   1.00
C5       0.19436    0.57045    -0.17123   1.00
H2       0.24919    0.59441    -0.15015   1.00
O3       0.30985    0.71214    0.02000   1.00
C4       0.24982    0.75038    -0.02100   1.00
C3c      0.23057    0.72123    -0.04243   1.00
H1       0.21524    0.69822    -0.02725   1.00
C3d      0.26914    0.78041    -0.04135   1.00
C3       0.23121    0.72092    -0.08354   1.00
O2       0.20784    0.69432    -0.10248   1.00
C3       0.27047    0.77978    -0.08227   1.00
H1       0.28681    0.80265    -0.09657   1.00
C2       0.25152    0.75028    -0.10439   1.00
C5       0.34472    0.73406    0.02121   1.00
H2       0.35532    0.73863    0.05162   1.00
H2       0.34070    0.76325    0.00734   1.00
C5       0.37568    0.71139    -0.00129   1.00
H2       0.36462    0.70587    -0.03137   1.00
H2       0.37971    0.68246    0.01302   1.00
C5       0.41447    0.73400    -0.00262   1.00
H2       0.42555    0.73986    0.02732   1.00
H2       0.41078    0.76230    -0.01811   1.00
C5       0.44553    0.70998    -0.02445   1.00
C5       0.26674    0.83963    -0.01105   1.00
C5       0.22937    0.66009    -0.11070   1.00
H2       0.24317    0.83008    0.00912   1.00
H2       0.25313    0.85360    -0.03712   1.00
H2       0.23953    0.64632    -0.08300   1.00
H2       0.25579    0.66602    -0.12895   1.00
H2       0.22639    0.62062    -0.19030   1.00
H2       0.25239    0.88656    0.05753   1.00
H2       0.24551    0.91353    0.01237   1.00
C2       0.25264    0.75047    0.10395   1.00
C3       0.22115    0.76804    0.08403   1.00
O2       0.19653    0.79343    0.10326   1.00
C3       0.28177    0.73142    0.08174   1.00
H1       0.30572    0.71682    0.09615   1.00
C3a      0.21998    0.76711    0.04287   1.00
H1       0.19688    0.78261    0.02798   1.00
C3b      0.28118    0.73162    0.04078   1.00
C4       0.25018    0.74962    0.02100   1.00
O3       0.29099    0.80810    -0.02167   1.00
C5       0.16121    0.77454    0.11280   1.00
H2       0.14601    0.76370    0.08609   1.00
C5       0.13551    0.80454    0.13326   1.00
H2       0.16647    0.74939    0.13274   1.00
H2       0.12191    0.82354    0.11068   1.00
H2       0.15500    0.82363    0.15093   1.00
C5       0.10396    0.78580    0.15918   1.00
H2       0.08676    0.76453    0.14176   1.00
C5       0.07609    0.81704    0.17547   1.00
H2       0.11714    0.77069    0.18493   1.00
C5       0.29212    0.86961    0.00983   1.00
H2       0.31125    0.88401    -0.01215   1.00
H2       0.31164    0.85381    0.03048   1.00
C5       0.26754    0.89998    0.03200   1.00
C5       0.29408    0.93262    0.04775   1.00
H2       0.17090    0.57982    -0.19286   1.00
C5       0.21885    0.53730    -0.18912   1.00
H2       0.17997    0.55973    -0.14323   1.00
C5       0.48105    0.73600    -0.03337   1.00
H2       0.45505    0.68435    -0.00551   1.00
H2       0.43272    0.69856    -0.05293   1.00
C5       0.04095    0.79703    0.19503   1.00
H2       0.09215    0.83563    0.19789   1.00
H2       0.06541    0.83641    0.15063   1.00
H2       0.31979    0.91914    0.06398   1.00
H2       0.30536    0.95094    0.02239   1.00
C5       0.27066    0.95872    0.07583   1.00
H2       0.24723    0.54975    -0.20116   1.00
H2       0.22570    0.51470    -0.16571   1.00
H2       0.20172    0.52292    -0.21374   1.00
H2       0.47737    0.76537    -0.01820   1.00
H2       0.50870    0.72120    -0.02229   1.00
H2       0.48339    0.74070    -0.06621   1.00
H2       0.05124    0.76980    0.21111   1.00
H2       0.02686    0.81801    0.21664   1.00
H2       0.01873    0.78846    0.17181   1.00
H2       0.27413    0.94746    0.10693   1.00
H2       0.28200    0.98993    0.07402   1.00
H2       0.23852    0.95809    0.06734   1.00
C5       0.70152    0.36715    0.63218   1.00
H2       0.68054    0.34776    0.64745   1.00
H2       0.68397    0.38418    0.61090   1.00
C5       0.72100    0.39459    0.66194   1.00
C5       0.69436    0.42955    0.67123   1.00
H2       0.74919    0.40559    0.65015   1.00
O3       0.80985    0.28786    0.48000   1.00
C4       0.74982    0.24962    0.52100   1.00
C3c      0.73057    0.27877    0.54243   1.00
H1       0.71524    0.30178    0.52725   1.00
C3d      0.76914    0.21959    0.54135   1.00
C3       0.73121    0.27908    0.58354   1.00
O2       0.70784    0.30568    0.60248   1.00
C3       0.77047    0.22022    0.58227   1.00
H1       0.78681    0.19735    0.59657   1.00
C2       0.75152    0.24972    0.60439   1.00
C5       0.84472    0.26594    0.47879   1.00
H2       0.85532    0.26137    0.44838   1.00
H2       0.84070    0.23675    0.49266   1.00
C5       0.87568    0.28861    0.50129   1.00
H2       0.86462    0.29413    0.53137   1.00
H2       0.87971    0.31754    0.48698   1.00
C5       0.91447    0.26600    0.50262   1.00
H2       0.92555    0.26014    0.47268   1.00
H2       0.91078    0.23770    0.51811   1.00
C5       0.94553    0.29002    0.52445   1.00
C5       0.76674    0.16037    0.51105   1.00
C5       0.72937    0.33991    0.61070   1.00
H2       0.74317    0.16992    0.49088   1.00
H2       0.75313    0.14640    0.53712   1.00
H2       0.73953    0.35368    0.58300   1.00
H2       0.75579    0.33398    0.62895   1.00
H2       0.72639    0.37938    0.69030   1.00
H2       0.75239    0.11344    0.44247   1.00
H2       0.74551    0.08647    0.48763   1.00
C2       0.75264    0.24953    0.39605   1.00
C3       0.72115    0.23196    0.41597   1.00
O2       0.69653    0.20657    0.39674   1.00
C3       0.78177    0.26858    0.41826   1.00
H1       0.80572    0.28318    0.40385   1.00
C3a      0.71998    0.23289    0.45713   1.00
H1       0.69688    0.21739    0.47202   1.00
C3b      0.78118    0.26838    0.45922   1.00
C4       0.75018    0.25038    0.47900   1.00
O3       0.79099    0.19190    0.52167   1.00
C5       0.66121    0.22546    0.38720   1.00
H2       0.64601    0.23630    0.41391   1.00
C5       0.63551    0.19546    0.36674   1.00
H2       0.66647    0.25061    0.36726   1.00
H2       0.62191    0.17646    0.38932   1.00
H2       0.65500    0.17637    0.34907   1.00
C5       0.60396    0.21420    0.34082   1.00
H2       0.58676    0.23547    0.35824   1.00
C5       0.57609    0.18296    0.32453   1.00
H2       0.61714    0.22931    0.31507   1.00
C5       0.79212    0.13039    0.49017   1.00
H2       0.81125    0.11599    0.51215   1.00
H2       0.81164    0.14619    0.46952   1.00
C5       0.76754    0.10002    0.46800   1.00
C5       0.79408    0.06738    0.45225   1.00
H2       0.67090    0.42018    0.69286   1.00
C5       0.71885    0.46270    0.68912   1.00
H2       0.67997    0.44027    0.64323   1.00
C5       0.98105    0.26400    0.53337   1.00
H2       0.95505    0.31565    0.50551   1.00
H2       0.93272    0.30144    0.55293   1.00
C5       0.54095    0.20297    0.30497   1.00
H2       0.59215    0.16437    0.30211   1.00
H2       0.56541    0.16359    0.34937   1.00
H2       0.81979    0.08086    0.43602   1.00
H2       0.80536    0.04906    0.47761   1.00
C5       0.77066    0.04128    0.42417   1.00
H2       0.74723    0.45025    0.70116   1.00
H2       0.72570    0.48530    0.66571   1.00
H2       0.70172    0.47708    0.71374   1.00
H2       0.97737    0.23463    0.51820   1.00
H2       1.00870    0.27880    0.52229   1.00
H2       0.98339    0.25930    0.56621   1.00
H2       0.55124    0.23020    0.28889   1.00
H2       0.52686    0.18199    0.28336   1.00
H2       0.51873    0.21154    0.32819   1.00
H2       0.77413    0.05254    0.39307   1.00
H2       0.78200    0.01007    0.42598   1.00
H2       0.73852    0.04191    0.43266   1.00
C5       0.86715    0.63218    0.20152   1.00
H2       0.84776    0.64745    0.18054   1.00
H2       0.88418    0.61090    0.18397   1.00
C5       0.89459    0.66194    0.22100   1.00
C5       0.92955    0.67123    0.19436   1.00
H2       0.90559    0.65015    0.24919   1.00
O3       0.78786    0.48000    0.30985   1.00
C4       0.74962    0.52100    0.24982   1.00
C3c      0.77877    0.54243    0.23057   1.00
H1       0.80178    0.52725    0.21524   1.00
C3d      0.71959    0.54135    0.26914   1.00
C3       0.77908    0.58354    0.23121   1.00
O2       0.80568    0.60248    0.20784   1.00
C3       0.72022    0.58227    0.27047   1.00
H1       0.69735    0.59657    0.28681   1.00
C2       0.74972    0.60439    0.25152   1.00
C5       0.76594    0.47879    0.34472   1.00
H2       0.76137    0.44838    0.35532   1.00
H2       0.73675    0.49266    0.34070   1.00
C5       0.78861    0.50129    0.37568   1.00
H2       0.79413    0.53137    0.36462   1.00
H2       0.81754    0.48698    0.37971   1.00
C5       0.76600    0.50262    0.41447   1.00
H2       0.76014    0.47268    0.42555   1.00
H2       0.73770    0.51811    0.41078   1.00
C5       0.79002    0.52445    0.44553   1.00
C5       0.66037    0.51105    0.26674   1.00
C5       0.83991    0.61070    0.22937   1.00
H2       0.66992    0.49088    0.24317   1.00
H2       0.64640    0.53712    0.25313   1.00
H2       0.85368    0.58300    0.23953   1.00
H2       0.83398    0.62895    0.25579   1.00
H2       0.87938    0.69030    0.22639   1.00
H2       0.61344    0.44247    0.25239   1.00
H2       0.58647    0.48763    0.24551   1.00
C2       0.74953    0.39605    0.25264   1.00
C3       0.73196    0.41597    0.22115   1.00
O2       0.70657    0.39674    0.19653   1.00
C3       0.76858    0.41826    0.28177   1.00
H1       0.78318    0.40385    0.30572   1.00
C3a      0.73289    0.45713    0.21998   1.00
H1       0.71739    0.47202    0.19688   1.00
C3b      0.76838    0.45922    0.28118   1.00
C4       0.75038    0.47900    0.25018   1.00
O3       0.69190    0.52167    0.29099   1.00
C5       0.72546    0.38720    0.16121   1.00
H2       0.73630    0.41391    0.14601   1.00
C5       0.69546    0.36674    0.13551   1.00
H2       0.75061    0.36726    0.16647   1.00
H2       0.67646    0.38932    0.12191   1.00
H2       0.67637    0.34907    0.15500   1.00
C5       0.71420    0.34082    0.10396   1.00
H2       0.73547    0.35824    0.08676   1.00
C5       0.68296    0.32453    0.07609   1.00
H2       0.72931    0.31507    0.11714   1.00
C5       0.63039    0.49017    0.29212   1.00
H2       0.61599    0.51215    0.31125   1.00
H2       0.64619    0.46952    0.31164   1.00
C5       0.60002    0.46800    0.26754   1.00
C5       0.56738    0.45225    0.29408   1.00
H2       0.92018    0.69286    0.17090   1.00
C5       0.96270    0.68912    0.21885   1.00
H2       0.94027    0.64323    0.17997   1.00
C5       0.76400    0.53337    0.48105   1.00
H2       0.81565    0.50551    0.45505   1.00
H2       0.80144    0.55293    0.43272   1.00
C5       0.70297    0.30497    0.04095   1.00
H2       0.66437    0.30211    0.09215   1.00
H2       0.66359    0.34937    0.06541   1.00
H2       0.58086    0.43602    0.31979   1.00
H2       0.54906    0.47761    0.30536   1.00
C5       0.54128    0.42417    0.27066   1.00
H2       0.95025    0.70116    0.24723   1.00
H2       0.98530    0.66571    0.22570   1.00
H2       0.97708    0.71374    0.20172   1.00
H2       0.73463    0.51820    0.47737   1.00
H2       0.77880    0.52229    0.50870   1.00
H2       0.75930    0.56621    0.48339   1.00
H2       0.73020    0.28889    0.05124   1.00
H2       0.68199    0.28336    0.02686   1.00
H2       0.71154    0.32819    0.01873   1.00
H2       0.55254    0.39307    0.27413   1.00
H2       0.51007    0.42598    0.28200   1.00
H2       0.54191    0.43266    0.23852   1.00
C5       0.36782    0.20152    0.13285   1.00
H2       0.35255    0.18054    0.15224   1.00
H2       0.38910    0.18397    0.11582   1.00
C5       0.33806    0.22100    0.10541   1.00
C5       0.32877    0.19436    0.07045   1.00
H2       0.34985    0.24919    0.09441   1.00
O3       0.52000    0.30985    0.21214   1.00
C4       0.47900    0.24982    0.25038   1.00
C3c      0.45757    0.23057    0.22123   1.00
H1       0.47275    0.21524    0.19822   1.00
C3d      0.45865    0.26914    0.28041   1.00
C3       0.41646    0.23121    0.22092   1.00
O2       0.39752    0.20784    0.19432   1.00
C3       0.41773    0.27047    0.27978   1.00
H1       0.40343    0.28681    0.30265   1.00
C2       0.39561    0.25152    0.25028   1.00
C5       0.52121    0.34472    0.23406   1.00
H2       0.55162    0.35532    0.23863   1.00
H2       0.50734    0.34070    0.26325   1.00
C5       0.49871    0.37568    0.21139   1.00
H2       0.46863    0.36462    0.20587   1.00
H2       0.51302    0.37971    0.18246   1.00
C5       0.49738    0.41447    0.23400   1.00
H2       0.52732    0.42555    0.23986   1.00
H2       0.48189    0.41078    0.26230   1.00
C5       0.47555    0.44553    0.20998   1.00
C5       0.48895    0.26674    0.33963   1.00
C5       0.38930    0.22937    0.16009   1.00
H2       0.50912    0.24317    0.33008   1.00
H2       0.46288    0.25313    0.35360   1.00
H2       0.41700    0.23953    0.14632   1.00
H2       0.37105    0.25579    0.16602   1.00
H2       0.30970    0.22639    0.12062   1.00
H2       0.55753    0.25239    0.38656   1.00
H2       0.51237    0.24551    0.41353   1.00
C2       0.60395    0.25264    0.25047   1.00
C3       0.58403    0.22115    0.26804   1.00
O2       0.60326    0.19653    0.29343   1.00
C3       0.58174    0.28177    0.23142   1.00
H1       0.59615    0.30572    0.21682   1.00
C3a      0.54287    0.21998    0.26711   1.00
H1       0.52798    0.19688    0.28261   1.00
C3b      0.54078    0.28118    0.23162   1.00
C4       0.52100    0.25018    0.24962   1.00
O3       0.47833    0.29099    0.30810   1.00
C5       0.61280    0.16121    0.27454   1.00
H2       0.58609    0.14601    0.26370   1.00
C5       0.63326    0.13551    0.30454   1.00
H2       0.63274    0.16647    0.24939   1.00
H2       0.61068    0.12191    0.32354   1.00
H2       0.65093    0.15500    0.32363   1.00
C5       0.65918    0.10396    0.28580   1.00
H2       0.64176    0.08676    0.26453   1.00
C5       0.67547    0.07609    0.31704   1.00
H2       0.68493    0.11714    0.27069   1.00
C5       0.50983    0.29212    0.36961   1.00
H2       0.48785    0.31125    0.38401   1.00
H2       0.53048    0.31164    0.35381   1.00
C5       0.53200    0.26754    0.39998   1.00
C5       0.54775    0.29408    0.43262   1.00
H2       0.30714    0.17090    0.07982   1.00
C5       0.31088    0.21885    0.03730   1.00
H2       0.35677    0.17997    0.05973   1.00
C5       0.46663    0.48105    0.23600   1.00
H2       0.49449    0.45505    0.18435   1.00
H2       0.44707    0.43272    0.19856   1.00
C5       0.69503    0.04095    0.29703   1.00
H2       0.69789    0.09215    0.33563   1.00
H2       0.65063    0.06541    0.33641   1.00
H2       0.56398    0.31979    0.41914   1.00
H2       0.52239    0.30536    0.45094   1.00
C5       0.57583    0.27066    0.45872   1.00
H2       0.29884    0.24723    0.04975   1.00
H2       0.33429    0.22570    0.01470   1.00
H2       0.28626    0.20172    0.02292   1.00
H2       0.48180    0.47737    0.26537   1.00
H2       0.47771    0.50870    0.22120   1.00
H2       0.43379    0.48339    0.24070   1.00
H2       0.71111    0.05124    0.26980   1.00
H2       0.71664    0.02686    0.31801   1.00
H2       0.67181    0.01873    0.28846   1.00
H2       0.60693    0.27413    0.44746   1.00
H2       0.57402    0.28200    0.48993   1.00
H2       0.56734    0.23852    0.45809   1.00
C5       1.13218    0.20152    0.36715   1.00
H2       1.14745    0.18054    0.34776   1.00
H2       1.11090    0.18397    0.38418   1.00
C5       1.16194    0.22100    0.39459   1.00
C5       1.17123    0.19436    0.42955   1.00
H2       1.15015    0.24919    0.40559   1.00
O3       0.98000    0.30985    0.28786   1.00
C4       1.02100    0.24982    0.24962   1.00
C3c      1.04243    0.23057    0.27877   1.00
H1       1.02725    0.21524    0.30178   1.00
C3d      1.04135    0.26914    0.21959   1.00
C3       1.08354    0.23121    0.27908   1.00
O2       1.10248    0.20784    0.30568   1.00
C3       1.08227    0.27047    0.22022   1.00
H1       1.09657    0.28681    0.19735   1.00
C2       1.10439    0.25152    0.24972   1.00
C5       0.97879    0.34472    0.26594   1.00
H2       0.94838    0.35532    0.26137   1.00
H2       0.99266    0.34070    0.23675   1.00
C5       1.00129    0.37568    0.28861   1.00
H2       1.03137    0.36462    0.29413   1.00
H2       0.98698    0.37971    0.31754   1.00
C5       1.00262    0.41447    0.26600   1.00
H2       0.97268    0.42555    0.26014   1.00
H2       1.01811    0.41078    0.23770   1.00
C5       1.02445    0.44553    0.29002   1.00
C5       1.01105    0.26674    0.16037   1.00
C5       1.11070    0.22937    0.33991   1.00
H2       0.99088    0.24317    0.16992   1.00
H2       1.03712    0.25313    0.14640   1.00
H2       1.08300    0.23953    0.35368   1.00
H2       1.12895    0.25579    0.33398   1.00
H2       1.19030    0.22639    0.37938   1.00
H2       0.94247    0.25239    0.11344   1.00
H2       0.98763    0.24551    0.08647   1.00
C2       0.89605    0.25264    0.24953   1.00
C3       0.91597    0.22115    0.23196   1.00
O2       0.89674    0.19653    0.20657   1.00
C3       0.91826    0.28177    0.26858   1.00
H1       0.90385    0.30572    0.28318   1.00
C3a      0.95713    0.21998    0.23289   1.00
H1       0.97202    0.19688    0.21739   1.00
C3b      0.95922    0.28118    0.26838   1.00
C4       0.97900    0.25018    0.25038   1.00
O3       1.02167    0.29099    0.19190   1.00
C5       0.88720    0.16121    0.22546   1.00
H2       0.91391    0.14601    0.23630   1.00
C5       0.86674    0.13551    0.19546   1.00
H2       0.86726    0.16647    0.25061   1.00
H2       0.88932    0.12191    0.17646   1.00
H2       0.84907    0.15500    0.17637   1.00
C5       0.84082    0.10396    0.21420   1.00
H2       0.85824    0.08676    0.23547   1.00
C5       0.82453    0.07609    0.18296   1.00
H2       0.81507    0.11714    0.22931   1.00
C5       0.99017    0.29212    0.13039   1.00
H2       1.01215    0.31125    0.11599   1.00
H2       0.96952    0.31164    0.14619   1.00
C5       0.96800    0.26754    0.10002   1.00
C5       0.95225    0.29408    0.06738   1.00
H2       1.19286    0.17090    0.42018   1.00
C5       1.18912    0.21885    0.46270   1.00
H2       1.14323    0.17997    0.44027   1.00
C5       1.03337    0.48105    0.26400   1.00
H2       1.00551    0.45505    0.31565   1.00
H2       1.05293    0.43272    0.30144   1.00
C5       0.80497    0.04095    0.20297   1.00
H2       0.80211    0.09215    0.16437   1.00
H2       0.84937    0.06541    0.16359   1.00
H2       0.93602    0.31979    0.08086   1.00
H2       0.97761    0.30536    0.04906   1.00
C5       0.92417    0.27066    0.04128   1.00
H2       1.20116    0.24723    0.45025   1.00
H2       1.16571    0.22570    0.48530   1.00
H2       1.21374    0.20172    0.47708   1.00
H2       1.01820    0.47737    0.23463   1.00
H2       1.02229    0.50870    0.27880   1.00
H2       1.06621    0.48339    0.25930   1.00
H2       0.78889    0.05124    0.23020   1.00
H2       0.78336    0.02686    0.18199   1.00
H2       0.82819    0.01873    0.21154   1.00
H2       0.89307    0.27413    0.05254   1.00
H2       0.92598    0.28200    0.01007   1.00
H2       0.93266    0.23852    0.04191   1.00
C5       0.63285    -0.13218   0.20152   1.00
H2       0.65224    -0.14745   0.18054   1.00
H2       0.61582    -0.11090   0.18397   1.00
C5       0.60541    -0.16194   0.22100   1.00
C5       0.57045    -0.17123   0.19436   1.00
H2       0.59441    -0.15015   0.24919   1.00
O3       0.71214    0.02000    0.30985   1.00
C4       0.75038    -0.02100   0.24982   1.00
C3c      0.72123    -0.04243   0.23057   1.00
H1       0.69822    -0.02725   0.21524   1.00
C3d      0.78041    -0.04135   0.26914   1.00
C3       0.72092    -0.08354   0.23121   1.00
O2       0.69432    -0.10248   0.20784   1.00
C3       0.77978    -0.08227   0.27047   1.00
H1       0.80265    -0.09657   0.28681   1.00
C2       0.75028    -0.10439   0.25152   1.00
C5       0.73406    0.02121    0.34472   1.00
H2       0.73863    0.05162    0.35532   1.00
H2       0.76325    0.00734    0.34070   1.00
C5       0.71139    -0.00129   0.37568   1.00
H2       0.70587    -0.03137   0.36462   1.00
H2       0.68246    0.01302    0.37971   1.00
C5       0.73400    -0.00262   0.41447   1.00
H2       0.73986    0.02732    0.42555   1.00
H2       0.76230    -0.01811   0.41078   1.00
C5       0.70998    -0.02445   0.44553   1.00
C5       0.83963    -0.01105   0.26674   1.00
C5       0.66009    -0.11070   0.22937   1.00
H2       0.83008    0.00912    0.24317   1.00
H2       0.85360    -0.03712   0.25313   1.00
H2       0.64632    -0.08300   0.23953   1.00
H2       0.66602    -0.12895   0.25579   1.00
H2       0.62062    -0.19030   0.22639   1.00
H2       0.88656    0.05753    0.25239   1.00
H2       0.91353    0.01237    0.24551   1.00
C2       0.75047    0.10395    0.25264   1.00
C3       0.76804    0.08403    0.22115   1.00
O2       0.79343    0.10326    0.19653   1.00
C3       0.73142    0.08174    0.28177   1.00
H1       0.71682    0.09615    0.30572   1.00
C3a      0.76711    0.04287    0.21998   1.00
H1       0.78261    0.02798    0.19688   1.00
C3b      0.73162    0.04078    0.28118   1.00
C4       0.74962    0.02100    0.25018   1.00
O3       0.80810    -0.02167   0.29099   1.00
C5       0.77454    0.11280    0.16121   1.00
H2       0.76370    0.08609    0.14601   1.00
C5       0.80454    0.13326    0.13551   1.00
H2       0.74939    0.13274    0.16647   1.00
H2       0.82354    0.11068    0.12191   1.00
H2       0.82363    0.15093    0.15500   1.00
C5       0.78580    0.15918    0.10396   1.00
H2       0.76453    0.14176    0.08676   1.00
C5       0.81704    0.17547    0.07609   1.00
H2       0.77069    0.18493    0.11714   1.00
C5       0.86961    0.00983    0.29212   1.00
H2       0.88401    -0.01215   0.31125   1.00
H2       0.85381    0.03048    0.31164   1.00
C5       0.89998    0.03200    0.26754   1.00
C5       0.93262    0.04775    0.29408   1.00
H2       0.57982    -0.19286   0.17090   1.00
C5       0.53730    -0.18912   0.21885   1.00
H2       0.55973    -0.14323   0.17997   1.00
C5       0.73600    -0.03337   0.48105   1.00
H2       0.68435    -0.00551   0.45505   1.00
H2       0.69856    -0.05293   0.43272   1.00
C5       0.79703    0.19503    0.04095   1.00
H2       0.83563    0.19789    0.09215   1.00
H2       0.83641    0.15063    0.06541   1.00
H2       0.91914    0.06398    0.31979   1.00
H2       0.95094    0.02239    0.30536   1.00
C5       0.95872    0.07583    0.27066   1.00
H2       0.54975    -0.20116   0.24723   1.00
H2       0.51470    -0.16571   0.22570   1.00
H2       0.52292    -0.21374   0.20172   1.00
H2       0.76537    -0.01820   0.47737   1.00
H2       0.72120    -0.02229   0.50870   1.00
H2       0.74070    -0.06621   0.48339   1.00
H2       0.76980    0.21111    0.05124   1.00
H2       0.81801    0.21664    0.02686   1.00
H2       0.78846    0.17181    0.01873   1.00
H2       0.94746    0.10693    0.27413   1.00
H2       0.98993    0.07402    0.28200   1.00
H2       0.95809    0.06734    0.23852   1.00
C5       0.70152    0.13285    -0.13218   1.00
H2       0.68054    0.15224    -0.14745   1.00
H2       0.68397    0.11582    -0.11090   1.00
C5       0.72100    0.10541    -0.16194   1.00
C5       0.69436    0.07045    -0.17123   1.00
H2       0.74919    0.09441    -0.15015   1.00
O3       0.80985    0.21214    0.02000   1.00
C4       0.74982    0.25038    -0.02100   1.00
C3c      0.73057    0.22123    -0.04243   1.00
H1       0.71524    0.19822    -0.02725   1.00
C3d      0.76914    0.28041    -0.04135   1.00
C3       0.73121    0.22092    -0.08354   1.00
O2       0.70784    0.19432    -0.10248   1.00
C3       0.77047    0.27978    -0.08227   1.00
H1       0.78681    0.30265    -0.09657   1.00
C2       0.75152    0.25028    -0.10439   1.00
C5       0.84472    0.23406    0.02121   1.00
H2       0.85532    0.23863    0.05162   1.00
H2       0.84070    0.26325    0.00734   1.00
C5       0.87568    0.21139    -0.00129   1.00
H2       0.86462    0.20587    -0.03137   1.00
H2       0.87971    0.18246    0.01302   1.00
C5       0.91447    0.23400    -0.00262   1.00
H2       0.92555    0.23986    0.02732   1.00
H2       0.91078    0.26230    -0.01811   1.00
C5       0.94553    0.20998    -0.02445   1.00
C5       0.76674    0.33963    -0.01105   1.00
C5       0.72937    0.16009    -0.11070   1.00
H2       0.74317    0.33008    0.00912   1.00
H2       0.75313    0.35360    -0.03712   1.00
H2       0.73953    0.14632    -0.08300   1.00
H2       0.75579    0.16602    -0.12895   1.00
H2       0.72639    0.12062    -0.19030   1.00
H2       0.75239    0.38656    0.05753   1.00
H2       0.74551    0.41353    0.01237   1.00
C2       0.75264    0.25047    0.10395   1.00
C3       0.72115    0.26804    0.08403   1.00
O2       0.69653    0.29343    0.10326   1.00
C3       0.78177    0.23142    0.08174   1.00
H1       0.80572    0.21682    0.09615   1.00
C3a      0.71998    0.26711    0.04287   1.00
H1       0.69688    0.28261    0.02798   1.00
C3b      0.78118    0.23162    0.04078   1.00
C4       0.75018    0.24962    0.02100   1.00
O3       0.79099    0.30810    -0.02167   1.00
C5       0.66121    0.27454    0.11280   1.00
H2       0.64601    0.26370    0.08609   1.00
C5       0.63551    0.30454    0.13326   1.00
H2       0.66647    0.24939    0.13274   1.00
H2       0.62191    0.32354    0.11068   1.00
H2       0.65500    0.32363    0.15093   1.00
C5       0.60396    0.28580    0.15918   1.00
H2       0.58676    0.26453    0.14176   1.00
C5       0.57609    0.31704    0.17547   1.00
H2       0.61714    0.27069    0.18493   1.00
C5       0.79212    0.36961    0.00983   1.00
H2       0.81125    0.38401    -0.01215   1.00
H2       0.81164    0.35381    0.03048   1.00
C5       0.76754    0.39998    0.03200   1.00
C5       0.79408    0.43262    0.04775   1.00
H2       0.67090    0.07982    -0.19286   1.00
C5       0.71885    0.03730    -0.18912   1.00
H2       0.67997    0.05973    -0.14323   1.00
C5       0.98105    0.23600    -0.03337   1.00
H2       0.95505    0.18435    -0.00551   1.00
H2       0.93272    0.19856    -0.05293   1.00
C5       0.54095    0.29703    0.19503   1.00
H2       0.59215    0.33563    0.19789   1.00
H2       0.56541    0.33641    0.15063   1.00
H2       0.81979    0.41914    0.06398   1.00
H2       0.80536    0.45094    0.02239   1.00
C5       0.77066    0.45872    0.07583   1.00
H2       0.74723    0.04975    -0.20116   1.00
H2       0.72570    0.01470    -0.16571   1.00
H2       0.70172    0.02292    -0.21374   1.00
H2       0.97737    0.26537    -0.01820   1.00
H2       1.00870    0.22120    -0.02229   1.00
H2       0.98339    0.24070    -0.06621   1.00
H2       0.55124    0.26980    0.21111   1.00
H2       0.52686    0.31801    0.21664   1.00
H2       0.51873    0.28846    0.17181   1.00
H2       0.77413    0.44746    0.10693   1.00
H2       0.78200    0.48993    0.07402   1.00
H2       0.73852    0.45809    0.06734   1.00
C5       0.86652    1.03215    1.29718   1.00
H2       0.84554    1.01276    1.31245   1.00
H2       0.84897    1.04918    1.27590   1.00
C5       0.88600    1.05959    1.32694   1.00
C5       0.85936    1.09455    1.33623   1.00
H2       0.91419    1.07059    1.31515   1.00
O3       0.97485    0.95286    1.14500   1.00
C4       0.91482    0.91462    1.18600   1.00
C3c      0.89557    0.94377    1.20743   1.00
H1       0.88024    0.96678    1.19225   1.00
C3d      0.93414    0.88459    1.20635   1.00
C3       0.89621    0.94408    1.24854   1.00
O2       0.87284    0.97068    1.26748   1.00
C3       0.93547    0.88522    1.24727   1.00
H1       0.95181    0.86235    1.26157   1.00
C2       0.91652    0.91472    1.26939   1.00
C5       1.00972    0.93094    1.14379   1.00
H2       1.02032    0.92637    1.11338   1.00
H2       1.00570    0.90175    1.15766   1.00
C5       1.04068    0.95361    1.16629   1.00
H2       1.02962    0.95913    1.19637   1.00
H2       1.04471    0.98254    1.15198   1.00
C5       1.07947    0.93100    1.16762   1.00
H2       1.09055    0.92514    1.13768   1.00
H2       1.07578    0.90270    1.18311   1.00
C5       1.11053    0.95502    1.18945   1.00
C5       0.93174    0.82537    1.17605   1.00
C5       0.89437    1.00491    1.27570   1.00
H2       0.90817    0.83492    1.15588   1.00
H2       0.91813    0.81140    1.20212   1.00
H2       0.90453    1.01868    1.24800   1.00
H2       0.92079    0.99898    1.29395   1.00
H2       0.89139    1.04438    1.35530   1.00
H2       0.91739    0.77844    1.10747   1.00
H2       0.91051    0.75147    1.15263   1.00
C2       0.91764    0.91453    1.06105   1.00
C3       0.88615    0.89696    1.08097   1.00
O2       0.86153    0.87157    1.06174   1.00
C3       0.94677    0.93358    1.08326   1.00
H1       0.97072    0.94818    1.06885   1.00
C3a      0.88498    0.89789    1.12213   1.00
H1       0.86188    0.88239    1.13702   1.00
C3b      0.94618    0.93338    1.12422   1.00
C4       0.91518    0.91538    1.14400   1.00
O3       0.95599    0.85690    1.18667   1.00
C5       0.82621    0.89046    1.05220   1.00
H2       0.81101    0.90130    1.07891   1.00
C5       0.80051    0.86046    1.03174   1.00
H2       0.83147    0.91561    1.03226   1.00
H2       0.78691    0.84146    1.05432   1.00
H2       0.82000    0.84137    1.01407   1.00
C5       0.76896    0.87920    1.00582   1.00
H2       0.75176    0.90047    1.02324   1.00
C5       0.74109    0.84796    0.98953   1.00
H2       0.78214    0.89431    0.98007   1.00
C5       0.95712    0.79539    1.15517   1.00
H2       0.97625    0.78099    1.17715   1.00
H2       0.97664    0.81119    1.13452   1.00
C5       0.93254    0.76502    1.13300   1.00
C5       0.95908    0.73238    1.11725   1.00
H2       0.83590    1.08518    1.35786   1.00
C5       0.88385    1.12770    1.35412   1.00
H2       0.84497    1.10527    1.30823   1.00
C5       1.14605    0.92900    1.19837   1.00
H2       1.12005    0.98065    1.17051   1.00
H2       1.09772    0.96644    1.21793   1.00
C5       0.70595    0.86797    0.96997   1.00
H2       0.75715    0.82937    0.96711   1.00
H2       0.73041    0.82859    1.01437   1.00
H2       0.98479    0.74586    1.10102   1.00
H2       0.97036    0.71406    1.14261   1.00
C5       0.93566    0.70628    1.08917   1.00
H2       0.91223    1.11525    1.36616   1.00
H2       0.89070    1.15030    1.33071   1.00
H2       0.86672    1.14208    1.37874   1.00
H2       1.14237    0.89963    1.18320   1.00
H2       1.17370    0.94380    1.18729   1.00
H2       1.14839    0.92430    1.23121   1.00
H2       0.71624    0.89520    0.95389   1.00
H2       0.69186    0.84699    0.94836   1.00
H2       0.68373    0.87654    0.99319   1.00
H2       0.93913    0.71754    1.05807   1.00
H2       0.94700    0.67507    1.09098   1.00
H2       0.90352    0.70691    1.09766   1.00
C5       1.03215    1.29718    0.86652   1.00
H2       1.01276    1.31245    0.84554   1.00
H2       1.04918    1.27590    0.84897   1.00
C5       1.05959    1.32694    0.88600   1.00
C5       1.09455    1.33623    0.85936   1.00
H2       1.07059    1.31515    0.91419   1.00
O3       0.95286    1.14500    0.97485   1.00
C4       0.91462    1.18600    0.91482   1.00
C3c      0.94377    1.20743    0.89557   1.00
H1       0.96678    1.19225    0.88024   1.00
C3d      0.88459    1.20635    0.93414   1.00
C3       0.94408    1.24854    0.89621   1.00
O2       0.97068    1.26748    0.87284   1.00
C3       0.88522    1.24727    0.93547   1.00
H1       0.86235    1.26157    0.95181   1.00
C2       0.91472    1.26939    0.91652   1.00
C5       0.93094    1.14379    1.00972   1.00
H2       0.92637    1.11338    1.02032   1.00
H2       0.90175    1.15766    1.00570   1.00
C5       0.95361    1.16629    1.04068   1.00
H2       0.95913    1.19637    1.02962   1.00
H2       0.98254    1.15198    1.04471   1.00
C5       0.93100    1.16762    1.07947   1.00
H2       0.92514    1.13768    1.09055   1.00
H2       0.90270    1.18311    1.07578   1.00
C5       0.95502    1.18945    1.11053   1.00
C5       0.82537    1.17605    0.93174   1.00
C5       1.00491    1.27570    0.89437   1.00
H2       0.83492    1.15588    0.90817   1.00
H2       0.81140    1.20212    0.91813   1.00
H2       1.01868    1.24800    0.90453   1.00
H2       0.99898    1.29395    0.92079   1.00
H2       1.04438    1.35530    0.89139   1.00
H2       0.77844    1.10747    0.91739   1.00
H2       0.75147    1.15263    0.91051   1.00
C2       0.91453    1.06105    0.91764   1.00
C3       0.89696    1.08097    0.88615   1.00
O2       0.87157    1.06174    0.86153   1.00
C3       0.93358    1.08326    0.94677   1.00
H1       0.94818    1.06885    0.97072   1.00
C3a      0.89789    1.12213    0.88498   1.00
H1       0.88239    1.13702    0.86188   1.00
C3b      0.93338    1.12422    0.94618   1.00
C4       0.91538    1.14400    0.91518   1.00
O3       0.85690    1.18667    0.95599   1.00
C5       0.89046    1.05220    0.82621   1.00
H2       0.90130    1.07891    0.81101   1.00
C5       0.86046    1.03174    0.80051   1.00
H2       0.91561    1.03226    0.83147   1.00
H2       0.84146    1.05432    0.78691   1.00
H2       0.84137    1.01407    0.82000   1.00
C5       0.87920    1.00582    0.76896   1.00
H2       0.90047    1.02324    0.75176   1.00
C5       0.84796    0.98953    0.74109   1.00
H2       0.89431    0.98007    0.78214   1.00
C5       0.79539    1.15517    0.95712   1.00
H2       0.78099    1.17715    0.97625   1.00
H2       0.81119    1.13452    0.97664   1.00
C5       0.76502    1.13300    0.93254   1.00
C5       0.73238    1.11725    0.95908   1.00
H2       1.08518    1.35786    0.83590   1.00
C5       1.12770    1.35412    0.88385   1.00
H2       1.10527    1.30823    0.84497   1.00
C5       0.92900    1.19837    1.14605   1.00
H2       0.98065    1.17051    1.12005   1.00
H2       0.96644    1.21793    1.09772   1.00
C5       0.86797    0.96997    0.70595   1.00
H2       0.82937    0.96711    0.75715   1.00
H2       0.82859    1.01437    0.73041   1.00
H2       0.74586    1.10102    0.98479   1.00
H2       0.71406    1.14261    0.97036   1.00
C5       0.70628    1.08917    0.93566   1.00
H2       1.11525    1.36616    0.91223   1.00
H2       1.15030    1.33071    0.89070   1.00
H2       1.14208    1.37874    0.86672   1.00
H2       0.89963    1.18320    1.14237   1.00
H2       0.94380    1.18729    1.17370   1.00
H2       0.92430    1.23121    1.14839   1.00
H2       0.89520    0.95389    0.71624   1.00
H2       0.84699    0.94836    0.69186   1.00
H2       0.87654    0.99319    0.68373   1.00
H2       0.71754    1.05807    0.93913   1.00
H2       0.67507    1.09098    0.94700   1.00
H2       0.70691    1.09766    0.90352   1.00
C5       0.53282    0.86652    0.79785   1.00
H2       0.51755    0.84554    0.81724   1.00
H2       0.55410    0.84897    0.78082   1.00
C5       0.50306    0.88600    0.77041   1.00
C5       0.49377    0.85936    0.73545   1.00
H2       0.51485    0.91419    0.75941   1.00
O3       0.68500    0.97485    0.87714   1.00
C4       0.64400    0.91482    0.91538   1.00
C3c      0.62257    0.89557    0.88623   1.00
H1       0.63775    0.88024    0.86322   1.00
C3d      0.62365    0.93414    0.94541   1.00
C3       0.58146    0.89621    0.88592   1.00
O2       0.56252    0.87284    0.85932   1.00
C3       0.58273    0.93547    0.94478   1.00
H1       0.56843    0.95181    0.96765   1.00
C2       0.56061    0.91652    0.91528   1.00
C5       0.68621    1.00972    0.89906   1.00
H2       0.71662    1.02032    0.90363   1.00
H2       0.67234    1.00570    0.92825   1.00
C5       0.66371    1.04068    0.87639   1.00
H2       0.63363    1.02962    0.87087   1.00
H2       0.67802    1.04471    0.84746   1.00
C5       0.66238    1.07947    0.89900   1.00
H2       0.69232    1.09055    0.90486   1.00
H2       0.64689    1.07578    0.92730   1.00
C5       0.64055    1.11053    0.87498   1.00
C5       0.65395    0.93174    1.00463   1.00
C5       0.55430    0.89437    0.82509   1.00
H2       0.67412    0.90817    0.99508   1.00
H2       0.62788    0.91813    1.01860   1.00
H2       0.58200    0.90453    0.81132   1.00
H2       0.53605    0.92079    0.83102   1.00
H2       0.47470    0.89139    0.78562   1.00
H2       0.72253    0.91739    1.05156   1.00
H2       0.67737    0.91051    1.07853   1.00
C2       0.76895    0.91764    0.91547   1.00
C3       0.74903    0.88615    0.93304   1.00
O2       0.76826    0.86153    0.95843   1.00
C3       0.74674    0.94677    0.89642   1.00
H1       0.76115    0.97072    0.88182   1.00
C3a      0.70787    0.88498    0.93211   1.00
H1       0.69298    0.86188    0.94761   1.00
C3b      0.70578    0.94618    0.89662   1.00
C4       0.68600    0.91518    0.91462   1.00
O3       0.64333    0.95599    0.97310   1.00
C5       0.77780    0.82621    0.93954   1.00
H2       0.75109    0.81101    0.92870   1.00
C5       0.79826    0.80051    0.96954   1.00
H2       0.79774    0.83147    0.91439   1.00
H2       0.77568    0.78691    0.98854   1.00
H2       0.81593    0.82000    0.98863   1.00
C5       0.82418    0.76896    0.95080   1.00
H2       0.80676    0.75176    0.92953   1.00
C5       0.84047    0.74109    0.98204   1.00
H2       0.84993    0.78214    0.93569   1.00
C5       0.67483    0.95712    1.03461   1.00
H2       0.65285    0.97625    1.04901   1.00
H2       0.69548    0.97664    1.01881   1.00
C5       0.69700    0.93254    1.06498   1.00
C5       0.71275    0.95908    1.09762   1.00
H2       0.47214    0.83590    0.74482   1.00
C5       0.47588    0.88385    0.70230   1.00
H2       0.52177    0.84497    0.72473   1.00
C5       0.63163    1.14605    0.90100   1.00
H2       0.65949    1.12005    0.84935   1.00
H2       0.61207    1.09772    0.86356   1.00
C5       0.86003    0.70595    0.96203   1.00
H2       0.86289    0.75715    1.00063   1.00
H2       0.81563    0.73041    1.00141   1.00
H2       0.72898    0.98479    1.08414   1.00
H2       0.68739    0.97036    1.11594   1.00
C5       0.74083    0.93566    1.12372   1.00
H2       0.46384    0.91223    0.71475   1.00
H2       0.49929    0.89070    0.67970   1.00
H2       0.45126    0.86672    0.68792   1.00
H2       0.64680    1.14237    0.93037   1.00
H2       0.64271    1.17370    0.88620   1.00
H2       0.59879    1.14839    0.90570   1.00
H2       0.87611    0.71624    0.93480   1.00
H2       0.88164    0.69186    0.98301   1.00
H2       0.83681    0.68373    0.95346   1.00
H2       0.77193    0.93913    1.11246   1.00
H2       0.73902    0.94700    1.15493   1.00
H2       0.73234    0.90352    1.12309   1.00
C5       1.29718    0.86652    1.03215   1.00
H2       1.31245    0.84554    1.01276   1.00
H2       1.27590    0.84897    1.04918   1.00
C5       1.32694    0.88600    1.05959   1.00
C5       1.33623    0.85936    1.09455   1.00
H2       1.31515    0.91419    1.07059   1.00
O3       1.14500    0.97485    0.95286   1.00
C4       1.18600    0.91482    0.91462   1.00
C3c      1.20743    0.89557    0.94377   1.00
H1       1.19225    0.88024    0.96678   1.00
C3d      1.20635    0.93414    0.88459   1.00
C3       1.24854    0.89621    0.94408   1.00
O2       1.26748    0.87284    0.97068   1.00
C3       1.24727    0.93547    0.88522   1.00
H1       1.26157    0.95181    0.86235   1.00
C2       1.26939    0.91652    0.91472   1.00
C5       1.14379    1.00972    0.93094   1.00
H2       1.11338    1.02032    0.92637   1.00
H2       1.15766    1.00570    0.90175   1.00
C5       1.16629    1.04068    0.95361   1.00
H2       1.19637    1.02962    0.95913   1.00
H2       1.15198    1.04471    0.98254   1.00
C5       1.16762    1.07947    0.93100   1.00
H2       1.13768    1.09055    0.92514   1.00
H2       1.18311    1.07578    0.90270   1.00
C5       1.18945    1.11053    0.95502   1.00
C5       1.17605    0.93174    0.82537   1.00
C5       1.27570    0.89437    1.00491   1.00
H2       1.15588    0.90817    0.83492   1.00
H2       1.20212    0.91813    0.81140   1.00
H2       1.24800    0.90453    1.01868   1.00
H2       1.29395    0.92079    0.99898   1.00
H2       1.35530    0.89139    1.04438   1.00
H2       1.10747    0.91739    0.77844   1.00
H2       1.15263    0.91051    0.75147   1.00
C2       1.06105    0.91764    0.91453   1.00
C3       1.08097    0.88615    0.89696   1.00
O2       1.06174    0.86153    0.87157   1.00
C3       1.08326    0.94677    0.93358   1.00
H1       1.06885    0.97072    0.94818   1.00
C3a      1.12213    0.88498    0.89789   1.00
H1       1.13702    0.86188    0.88239   1.00
C3b      1.12422    0.94618    0.93338   1.00
C4       1.14400    0.91518    0.91538   1.00
O3       1.18667    0.95599    0.85690   1.00
C5       1.05220    0.82621    0.89046   1.00
H2       1.07891    0.81101    0.90130   1.00
C5       1.03174    0.80051    0.86046   1.00
H2       1.03226    0.83147    0.91561   1.00
H2       1.05432    0.78691    0.84146   1.00
H2       1.01407    0.82000    0.84137   1.00
C5       1.00582    0.76896    0.87920   1.00
H2       1.02324    0.75176    0.90047   1.00
C5       0.98953    0.74109    0.84796   1.00
H2       0.98007    0.78214    0.89431   1.00
C5       1.15517    0.95712    0.79539   1.00
H2       1.17715    0.97625    0.78099   1.00
H2       1.13452    0.97664    0.81119   1.00
C5       1.13300    0.93254    0.76502   1.00
C5       1.11725    0.95908    0.73238   1.00
H2       1.35786    0.83590    1.08518   1.00
C5       1.35412    0.88385    1.12770   1.00
H2       1.30823    0.84497    1.10527   1.00
C5       1.19837    1.14605    0.92900   1.00
H2       1.17051    1.12005    0.98065   1.00
H2       1.21793    1.09772    0.96644   1.00
C5       0.96997    0.70595    0.86797   1.00
H2       0.96711    0.75715    0.82937   1.00
H2       1.01437    0.73041    0.82859   1.00
H2       1.10102    0.98479    0.74586   1.00
H2       1.14261    0.97036    0.71406   1.00
C5       1.08917    0.93566    0.70628   1.00
H2       1.36616    0.91223    1.11525   1.00
H2       1.33071    0.89070    1.15030   1.00
H2       1.37874    0.86672    1.14208   1.00
H2       1.18320    1.14237    0.89963   1.00
H2       1.18729    1.17370    0.94380   1.00
H2       1.23121    1.14839    0.92430   1.00
H2       0.95389    0.71624    0.89520   1.00
H2       0.94836    0.69186    0.84699   1.00
H2       0.99319    0.68373    0.87654   1.00
H2       1.05807    0.93913    0.71754   1.00
H2       1.09098    0.94700    0.67507   1.00
H2       1.09766    0.90352    0.70691   1.00
C5       0.79785    0.53282    0.86652   1.00
H2       0.81724    0.51755    0.84554   1.00
H2       0.78082    0.55410    0.84897   1.00
C5       0.77041    0.50306    0.88600   1.00
C5       0.73545    0.49377    0.85936   1.00
H2       0.75941    0.51485    0.91419   1.00
O3       0.87714    0.68500    0.97485   1.00
C4       0.91538    0.64400    0.91482   1.00
C3c      0.88623    0.62257    0.89557   1.00
H1       0.86322    0.63775    0.88024   1.00
C3d      0.94541    0.62365    0.93414   1.00
C3       0.88592    0.58146    0.89621   1.00
O2       0.85932    0.56252    0.87284   1.00
C3       0.94478    0.58273    0.93547   1.00
H1       0.96765    0.56843    0.95181   1.00
C2       0.91528    0.56061    0.91652   1.00
C5       0.89906    0.68621    1.00972   1.00
H2       0.90363    0.71662    1.02032   1.00
H2       0.92825    0.67234    1.00570   1.00
C5       0.87639    0.66371    1.04068   1.00
H2       0.87087    0.63363    1.02962   1.00
H2       0.84746    0.67802    1.04471   1.00
C5       0.89900    0.66238    1.07947   1.00
H2       0.90486    0.69232    1.09055   1.00
H2       0.92730    0.64689    1.07578   1.00
C5       0.87498    0.64055    1.11053   1.00
C5       1.00463    0.65395    0.93174   1.00
C5       0.82509    0.55430    0.89437   1.00
H2       0.99508    0.67412    0.90817   1.00
H2       1.01860    0.62788    0.91813   1.00
H2       0.81132    0.58200    0.90453   1.00
H2       0.83102    0.53605    0.92079   1.00
H2       0.78562    0.47470    0.89139   1.00
H2       1.05156    0.72253    0.91739   1.00
H2       1.07853    0.67737    0.91051   1.00
C2       0.91547    0.76895    0.91764   1.00
C3       0.93304    0.74903    0.88615   1.00
O2       0.95843    0.76826    0.86153   1.00
C3       0.89642    0.74674    0.94677   1.00
H1       0.88182    0.76115    0.97072   1.00
C3a      0.93211    0.70787    0.88498   1.00
H1       0.94761    0.69298    0.86188   1.00
C3b      0.89662    0.70578    0.94618   1.00
C4       0.91462    0.68600    0.91518   1.00
O3       0.97310    0.64333    0.95599   1.00
C5       0.93954    0.77780    0.82621   1.00
H2       0.92870    0.75109    0.81101   1.00
C5       0.96954    0.79826    0.80051   1.00
H2       0.91439    0.79774    0.83147   1.00
H2       0.98854    0.77568    0.78691   1.00
H2       0.98863    0.81593    0.82000   1.00
C5       0.95080    0.82418    0.76896   1.00
H2       0.92953    0.80676    0.75176   1.00
C5       0.98204    0.84047    0.74109   1.00
H2       0.93569    0.84993    0.78214   1.00
C5       1.03461    0.67483    0.95712   1.00
H2       1.04901    0.65285    0.97625   1.00
H2       1.01881    0.69548    0.97664   1.00
C5       1.06498    0.69700    0.93254   1.00
C5       1.09762    0.71275    0.95908   1.00
H2       0.74482    0.47214    0.83590   1.00
C5       0.70230    0.47588    0.88385   1.00
H2       0.72473    0.52177    0.84497   1.00
C5       0.90100    0.63163    1.14605   1.00
H2       0.84935    0.65949    1.12005   1.00
H2       0.86356    0.61207    1.09772   1.00
C5       0.96203    0.86003    0.70595   1.00
H2       1.00063    0.86289    0.75715   1.00
H2       1.00141    0.81563    0.73041   1.00
H2       1.08414    0.72898    0.98479   1.00
H2       1.11594    0.68739    0.97036   1.00
C5       1.12372    0.74083    0.93566   1.00
H2       0.71475    0.46384    0.91223   1.00
H2       0.67970    0.49929    0.89070   1.00
H2       0.68792    0.45126    0.86672   1.00
H2       0.93037    0.64680    1.14237   1.00
H2       0.88620    0.64271    1.17370   1.00
H2       0.90570    0.59879    1.14839   1.00
H2       0.93480    0.87611    0.71624   1.00
H2       0.98301    0.88164    0.69186   1.00
H2       0.95346    0.83681    0.68373   1.00
H2       1.11246    0.77193    0.93913   1.00
H2       1.15493    0.73902    0.94700   1.00
H2       1.12309    0.73234    0.90352   1.00
C5       0.86652    0.79785    0.53282   1.00
H2       0.84554    0.81724    0.51755   1.00
H2       0.84897    0.78082    0.55410   1.00
C5       0.88600    0.77041    0.50306   1.00
C5       0.85936    0.73545    0.49377   1.00
H2       0.91419    0.75941    0.51485   1.00
O3       0.97485    0.87714    0.68500   1.00
C4       0.91482    0.91538    0.64400   1.00
C3c      0.89557    0.88623    0.62257   1.00
H1       0.88024    0.86322    0.63775   1.00
C3d      0.93414    0.94541    0.62365   1.00
C3       0.89621    0.88592    0.58146   1.00
O2       0.87284    0.85932    0.56252   1.00
C3       0.93547    0.94478    0.58273   1.00
H1       0.95181    0.96765    0.56843   1.00
C2       0.91652    0.91528    0.56061   1.00
C5       1.00972    0.89906    0.68621   1.00
H2       1.02032    0.90363    0.71662   1.00
H2       1.00570    0.92825    0.67234   1.00
C5       1.04068    0.87639    0.66371   1.00
H2       1.02962    0.87087    0.63363   1.00
H2       1.04471    0.84746    0.67802   1.00
C5       1.07947    0.89900    0.66238   1.00
H2       1.09055    0.90486    0.69232   1.00
H2       1.07578    0.92730    0.64689   1.00
C5       1.11053    0.87498    0.64055   1.00
C5       0.93174    1.00463    0.65395   1.00
C5       0.89437    0.82509    0.55430   1.00
H2       0.90817    0.99508    0.67412   1.00
H2       0.91813    1.01860    0.62788   1.00
H2       0.90453    0.81132    0.58200   1.00
H2       0.92079    0.83102    0.53605   1.00
H2       0.89139    0.78562    0.47470   1.00
H2       0.91739    1.05156    0.72253   1.00
H2       0.91051    1.07853    0.67737   1.00
C2       0.91764    0.91547    0.76895   1.00
C3       0.88615    0.93304    0.74903   1.00
O2       0.86153    0.95843    0.76826   1.00
C3       0.94677    0.89642    0.74674   1.00
H1       0.97072    0.88182    0.76115   1.00
C3a      0.88498    0.93211    0.70787   1.00
H1       0.86188    0.94761    0.69298   1.00
C3b      0.94618    0.89662    0.70578   1.00
C4       0.91518    0.91462    0.68600   1.00
O3       0.95599    0.97310    0.64333   1.00
C5       0.82621    0.93954    0.77780   1.00
H2       0.81101    0.92870    0.75109   1.00
C5       0.80051    0.96954    0.79826   1.00
H2       0.83147    0.91439    0.79774   1.00
H2       0.78691    0.98854    0.77568   1.00
H2       0.82000    0.98863    0.81593   1.00
C5       0.76896    0.95080    0.82418   1.00
H2       0.75176    0.92953    0.80676   1.00
C5       0.74109    0.98204    0.84047   1.00
H2       0.78214    0.93569    0.84993   1.00
C5       0.95712    1.03461    0.67483   1.00
H2       0.97625    1.04901    0.65285   1.00
H2       0.97664    1.01881    0.69548   1.00
C5       0.93254    1.06498    0.69700   1.00
C5       0.95908    1.09762    0.71275   1.00
H2       0.83590    0.74482    0.47214   1.00
C5       0.88385    0.70230    0.47588   1.00
H2       0.84497    0.72473    0.52177   1.00
C5       1.14605    0.90100    0.63163   1.00
H2       1.12005    0.84935    0.65949   1.00
H2       1.09772    0.86356    0.61207   1.00
C5       0.70595    0.96203    0.86003   1.00
H2       0.75715    1.00063    0.86289   1.00
H2       0.73041    1.00141    0.81563   1.00
H2       0.98479    1.08414    0.72898   1.00
H2       0.97036    1.11594    0.68739   1.00
C5       0.93566    1.12372    0.74083   1.00
H2       0.91223    0.71475    0.46384   1.00
H2       0.89070    0.67970    0.49929   1.00
H2       0.86672    0.68792    0.45126   1.00
H2       1.14237    0.93037    0.64680   1.00
H2       1.17370    0.88620    0.64271   1.00
H2       1.14839    0.90570    0.59879   1.00
H2       0.71624    0.93480    0.87611   1.00
H2       0.69186    0.98301    0.88164   1.00
H2       0.68373    0.95346    0.83681   1.00
H2       0.93913    1.11246    0.77193   1.00
H2       0.94700    1.15493    0.73902   1.00
H2       0.90352    1.12309    0.73234   1.00
C5       0.36652    0.53215    1.29718   1.00
H2       0.34554    0.51276    1.31245   1.00
H2       0.34897    0.54918    1.27590   1.00
C5       0.38600    0.55959    1.32694   1.00
C5       0.35936    0.59455    1.33623   1.00
H2       0.41419    0.57059    1.31515   1.00
O3       0.47485    0.45286    1.14500   1.00
C4       0.41482    0.41462    1.18600   1.00
C3c      0.39557    0.44377    1.20743   1.00
H1       0.38024    0.46678    1.19225   1.00
C3d      0.43414    0.38459    1.20635   1.00
C3       0.39621    0.44408    1.24854   1.00
O2       0.37284    0.47068    1.26748   1.00
C3       0.43547    0.38522    1.24727   1.00
H1       0.45181    0.36235    1.26157   1.00
C2       0.41652    0.41472    1.26939   1.00
C5       0.50972    0.43094    1.14379   1.00
H2       0.52032    0.42637    1.11338   1.00
H2       0.50570    0.40175    1.15766   1.00
C5       0.54068    0.45361    1.16629   1.00
H2       0.52962    0.45913    1.19637   1.00
H2       0.54471    0.48254    1.15198   1.00
C5       0.57947    0.43100    1.16762   1.00
H2       0.59055    0.42514    1.13768   1.00
H2       0.57578    0.40270    1.18311   1.00
C5       0.61053    0.45502    1.18945   1.00
C5       0.43174    0.32537    1.17605   1.00
C5       0.39437    0.50491    1.27570   1.00
H2       0.40817    0.33492    1.15588   1.00
H2       0.41813    0.31140    1.20212   1.00
H2       0.40453    0.51868    1.24800   1.00
H2       0.42079    0.49898    1.29395   1.00
H2       0.39139    0.54438    1.35530   1.00
H2       0.41739    0.27844    1.10747   1.00
H2       0.41051    0.25147    1.15263   1.00
C2       0.41764    0.41453    1.06105   1.00
C3       0.38615    0.39696    1.08097   1.00
O2       0.36153    0.37157    1.06174   1.00
C3       0.44677    0.43358    1.08326   1.00
H1       0.47072    0.44818    1.06885   1.00
C3a      0.38498    0.39789    1.12213   1.00
H1       0.36188    0.38239    1.13702   1.00
C3b      0.44618    0.43338    1.12422   1.00
C4       0.41518    0.41538    1.14400   1.00
O3       0.45599    0.35690    1.18667   1.00
C5       0.32621    0.39046    1.05220   1.00
H2       0.31101    0.40130    1.07891   1.00
C5       0.30051    0.36046    1.03174   1.00
H2       0.33147    0.41561    1.03226   1.00
H2       0.28691    0.34146    1.05432   1.00
H2       0.32000    0.34137    1.01407   1.00
C5       0.26896    0.37920    1.00582   1.00
H2       0.25176    0.40047    1.02324   1.00
C5       0.24109    0.34796    0.98953   1.00
H2       0.28214    0.39431    0.98007   1.00
C5       0.45712    0.29539    1.15517   1.00
H2       0.47625    0.28099    1.17715   1.00
H2       0.47664    0.31119    1.13452   1.00
C5       0.43254    0.26502    1.13300   1.00
C5       0.45908    0.23238    1.11725   1.00
H2       0.33590    0.58518    1.35786   1.00
C5       0.38385    0.62770    1.35412   1.00
H2       0.34497    0.60527    1.30823   1.00
C5       0.64605    0.42900    1.19837   1.00
H2       0.62005    0.48065    1.17051   1.00
H2       0.59772    0.46644    1.21793   1.00
C5       0.20595    0.36797    0.96997   1.00
H2       0.25715    0.32937    0.96711   1.00
H2       0.23041    0.32859    1.01437   1.00
H2       0.48479    0.24586    1.10102   1.00
H2       0.47036    0.21406    1.14261   1.00
C5       0.43566    0.20628    1.08917   1.00
H2       0.41223    0.61525    1.36616   1.00
H2       0.39070    0.65030    1.33071   1.00
H2       0.36672    0.64208    1.37874   1.00
H2       0.64237    0.39963    1.18320   1.00
H2       0.67370    0.44380    1.18729   1.00
H2       0.64839    0.42430    1.23121   1.00
H2       0.21624    0.39520    0.95389   1.00
H2       0.19186    0.34699    0.94836   1.00
H2       0.18373    0.37654    0.99319   1.00
H2       0.43913    0.21754    1.05807   1.00
H2       0.44700    0.17507    1.09098   1.00
H2       0.40352    0.20691    1.09766   1.00
C5       0.53215    0.79718    0.86652   1.00
H2       0.51276    0.81245    0.84554   1.00
H2       0.54918    0.77590    0.84897   1.00
C5       0.55959    0.82694    0.88600   1.00
C5       0.59455    0.83623    0.85936   1.00
H2       0.57059    0.81515    0.91419   1.00
O3       0.45286    0.64500    0.97485   1.00
C4       0.41462    0.68600    0.91482   1.00
C3c      0.44377    0.70743    0.89557   1.00
H1       0.46678    0.69225    0.88024   1.00
C3d      0.38459    0.70635    0.93414   1.00
C3       0.44408    0.74854    0.89621   1.00
O2       0.47068    0.76748    0.87284   1.00
C3       0.38522    0.74727    0.93547   1.00
H1       0.36235    0.76157    0.95181   1.00
C2       0.41472    0.76939    0.91652   1.00
C5       0.43094    0.64379    1.00972   1.00
H2       0.42637    0.61338    1.02032   1.00
H2       0.40175    0.65766    1.00570   1.00
C5       0.45361    0.66629    1.04068   1.00
H2       0.45913    0.69637    1.02962   1.00
H2       0.48254    0.65198    1.04471   1.00
C5       0.43100    0.66762    1.07947   1.00
H2       0.42514    0.63768    1.09055   1.00
H2       0.40270    0.68311    1.07578   1.00
C5       0.45502    0.68945    1.11053   1.00
C5       0.32537    0.67605    0.93174   1.00
C5       0.50491    0.77570    0.89437   1.00
H2       0.33492    0.65588    0.90817   1.00
H2       0.31140    0.70212    0.91813   1.00
H2       0.51868    0.74800    0.90453   1.00
H2       0.49898    0.79395    0.92079   1.00
H2       0.54438    0.85530    0.89139   1.00
H2       0.27844    0.60747    0.91739   1.00
H2       0.25147    0.65263    0.91051   1.00
C2       0.41453    0.56105    0.91764   1.00
C3       0.39696    0.58097    0.88615   1.00
O2       0.37157    0.56174    0.86153   1.00
C3       0.43358    0.58326    0.94677   1.00
H1       0.44818    0.56885    0.97072   1.00
C3a      0.39789    0.62213    0.88498   1.00
H1       0.38239    0.63702    0.86188   1.00
C3b      0.43338    0.62422    0.94618   1.00
C4       0.41538    0.64400    0.91518   1.00
O3       0.35690    0.68667    0.95599   1.00
C5       0.39046    0.55220    0.82621   1.00
H2       0.40130    0.57891    0.81101   1.00
C5       0.36046    0.53174    0.80051   1.00
H2       0.41561    0.53226    0.83147   1.00
H2       0.34146    0.55432    0.78691   1.00
H2       0.34137    0.51407    0.82000   1.00
C5       0.37920    0.50582    0.76896   1.00
H2       0.40047    0.52324    0.75176   1.00
C5       0.34796    0.48953    0.74109   1.00
H2       0.39431    0.48007    0.78214   1.00
C5       0.29539    0.65517    0.95712   1.00
H2       0.28099    0.67715    0.97625   1.00
H2       0.31119    0.63452    0.97664   1.00
C5       0.26502    0.63300    0.93254   1.00
C5       0.23238    0.61725    0.95908   1.00
H2       0.58518    0.85786    0.83590   1.00
C5       0.62770    0.85412    0.88385   1.00
H2       0.60527    0.80823    0.84497   1.00
C5       0.42900    0.69837    1.14605   1.00
H2       0.48065    0.67051    1.12005   1.00
H2       0.46644    0.71793    1.09772   1.00
C5       0.36797    0.46997    0.70595   1.00
H2       0.32937    0.46711    0.75715   1.00
H2       0.32859    0.51437    0.73041   1.00
H2       0.24586    0.60102    0.98479   1.00
H2       0.21406    0.64261    0.97036   1.00
C5       0.20628    0.58917    0.93566   1.00
H2       0.61525    0.86616    0.91223   1.00
H2       0.65030    0.83071    0.89070   1.00
H2       0.64208    0.87874    0.86672   1.00
H2       0.39963    0.68320    1.14237   1.00
H2       0.44380    0.68729    1.17370   1.00
H2       0.42430    0.73121    1.14839   1.00
H2       0.39520    0.45389    0.71624   1.00
H2       0.34699    0.44836    0.69186   1.00
H2       0.37654    0.49319    0.68373   1.00
H2       0.21754    0.55807    0.93913   1.00
H2       0.17507    0.59098    0.94700   1.00
H2       0.20691    0.59766    0.90352   1.00
C5       0.03282    0.36652    0.79785   1.00
H2       0.01755    0.34554    0.81724   1.00
H2       0.05410    0.34897    0.78082   1.00
C5       0.00306    0.38600    0.77041   1.00
C5       -0.00623   0.35936    0.73545   1.00
H2       0.01485    0.41419    0.75941   1.00
O3       0.18500    0.47485    0.87714   1.00
C4       0.14400    0.41482    0.91538   1.00
C3c      0.12257    0.39557    0.88623   1.00
H1       0.13775    0.38024    0.86322   1.00
C3d      0.12365    0.43414    0.94541   1.00
C3       0.08146    0.39621    0.88592   1.00
O2       0.06252    0.37284    0.85932   1.00
C3       0.08273    0.43547    0.94478   1.00
H1       0.06843    0.45181    0.96765   1.00
C2       0.06061    0.41652    0.91528   1.00
C5       0.18621    0.50972    0.89906   1.00
H2       0.21662    0.52032    0.90363   1.00
H2       0.17234    0.50570    0.92825   1.00
C5       0.16371    0.54068    0.87639   1.00
H2       0.13363    0.52962    0.87087   1.00
H2       0.17802    0.54471    0.84746   1.00
C5       0.16238    0.57947    0.89900   1.00
H2       0.19232    0.59055    0.90486   1.00
H2       0.14689    0.57578    0.92730   1.00
C5       0.14055    0.61053    0.87498   1.00
C5       0.15395    0.43174    1.00463   1.00
C5       0.05430    0.39437    0.82509   1.00
H2       0.17412    0.40817    0.99508   1.00
H2       0.12788    0.41813    1.01860   1.00
H2       0.08200    0.40453    0.81132   1.00
H2       0.03605    0.42079    0.83102   1.00
H2       -0.02530   0.39139    0.78562   1.00
H2       0.22253    0.41739    1.05156   1.00
H2       0.17737    0.41051    1.07853   1.00
C2       0.26895    0.41764    0.91547   1.00
C3       0.24903    0.38615    0.93304   1.00
O2       0.26826    0.36153    0.95843   1.00
C3       0.24674    0.44677    0.89642   1.00
H1       0.26115    0.47072    0.88182   1.00
C3a      0.20787    0.38498    0.93211   1.00
H1       0.19298    0.36188    0.94761   1.00
C3b      0.20578    0.44618    0.89662   1.00
C4       0.18600    0.41518    0.91462   1.00
O3       0.14333    0.45599    0.97310   1.00
C5       0.27780    0.32621    0.93954   1.00
H2       0.25109    0.31101    0.92870   1.00
C5       0.29826    0.30051    0.96954   1.00
H2       0.29774    0.33147    0.91439   1.00
H2       0.27568    0.28691    0.98854   1.00
H2       0.31593    0.32000    0.98863   1.00
C5       0.32418    0.26896    0.95080   1.00
H2       0.30676    0.25176    0.92953   1.00
C5       0.34047    0.24109    0.98204   1.00
H2       0.34993    0.28214    0.93569   1.00
C5       0.17483    0.45712    1.03461   1.00
H2       0.15285    0.47625    1.04901   1.00
H2       0.19548    0.47664    1.01881   1.00
C5       0.19700    0.43254    1.06498   1.00
C5       0.21275    0.45908    1.09762   1.00
H2       -0.02786   0.33590    0.74482   1.00
C5       -0.02412   0.38385    0.70230   1.00
H2       0.02177    0.34497    0.72473   1.00
C5       0.13163    0.64605    0.90100   1.00
H2       0.15949    0.62005    0.84935   1.00
H2       0.11207    0.59772    0.86356   1.00
C5       0.36003    0.20595    0.96203   1.00
H2       0.36289    0.25715    1.00063   1.00
H2       0.31563    0.23041    1.00141   1.00
H2       0.22898    0.48479    1.08414   1.00
H2       0.18739    0.47036    1.11594   1.00
C5       0.24083    0.43566    1.12372   1.00
H2       -0.03616   0.41223    0.71475   1.00
H2       -0.00071   0.39070    0.67970   1.00
H2       -0.04874   0.36672    0.68792   1.00
H2       0.14680    0.64237    0.93037   1.00
H2       0.14271    0.67370    0.88620   1.00
H2       0.09879    0.64839    0.90570   1.00
H2       0.37611    0.21624    0.93480   1.00
H2       0.38164    0.19186    0.98301   1.00
H2       0.33681    0.18373    0.95346   1.00
H2       0.27193    0.43913    1.11246   1.00
H2       0.23902    0.44700    1.15493   1.00
H2       0.23234    0.40352    1.12309   1.00
C5       0.79718    0.36652    1.03215   1.00
H2       0.81245    0.34554    1.01276   1.00
H2       0.77590    0.34897    1.04918   1.00
C5       0.82694    0.38600    1.05959   1.00
C5       0.83623    0.35936    1.09455   1.00
H2       0.81515    0.41419    1.07059   1.00
O3       0.64500    0.47485    0.95286   1.00
C4       0.68600    0.41482    0.91462   1.00
C3c      0.70743    0.39557    0.94377   1.00
H1       0.69225    0.38024    0.96678   1.00
C3d      0.70635    0.43414    0.88459   1.00
C3       0.74854    0.39621    0.94408   1.00
O2       0.76748    0.37284    0.97068   1.00
C3       0.74727    0.43547    0.88522   1.00
H1       0.76157    0.45181    0.86235   1.00
C2       0.76939    0.41652    0.91472   1.00
C5       0.64379    0.50972    0.93094   1.00
H2       0.61338    0.52032    0.92637   1.00
H2       0.65766    0.50570    0.90175   1.00
C5       0.66629    0.54068    0.95361   1.00
H2       0.69637    0.52962    0.95913   1.00
H2       0.65198    0.54471    0.98254   1.00
C5       0.66762    0.57947    0.93100   1.00
H2       0.63768    0.59055    0.92514   1.00
H2       0.68311    0.57578    0.90270   1.00
C5       0.68945    0.61053    0.95502   1.00
C5       0.67605    0.43174    0.82537   1.00
C5       0.77570    0.39437    1.00491   1.00
H2       0.65588    0.40817    0.83492   1.00
H2       0.70212    0.41813    0.81140   1.00
H2       0.74800    0.40453    1.01868   1.00
H2       0.79395    0.42079    0.99898   1.00
H2       0.85530    0.39139    1.04438   1.00
H2       0.60747    0.41739    0.77844   1.00
H2       0.65263    0.41051    0.75147   1.00
C2       0.56105    0.41764    0.91453   1.00
C3       0.58097    0.38615    0.89696   1.00
O2       0.56174    0.36153    0.87157   1.00
C3       0.58326    0.44677    0.93358   1.00
H1       0.56885    0.47072    0.94818   1.00
C3a      0.62213    0.38498    0.89789   1.00
H1       0.63702    0.36188    0.88239   1.00
C3b      0.62422    0.44618    0.93338   1.00
C4       0.64400    0.41518    0.91538   1.00
O3       0.68667    0.45599    0.85690   1.00
C5       0.55220    0.32621    0.89046   1.00
H2       0.57891    0.31101    0.90130   1.00
C5       0.53174    0.30051    0.86046   1.00
H2       0.53226    0.33147    0.91561   1.00
H2       0.55432    0.28691    0.84146   1.00
H2       0.51407    0.32000    0.84137   1.00
C5       0.50582    0.26896    0.87920   1.00
H2       0.52324    0.25176    0.90047   1.00
C5       0.48953    0.24109    0.84796   1.00
H2       0.48007    0.28214    0.89431   1.00
C5       0.65517    0.45712    0.79539   1.00
H2       0.67715    0.47625    0.78099   1.00
H2       0.63452    0.47664    0.81119   1.00
C5       0.63300    0.43254    0.76502   1.00
C5       0.61725    0.45908    0.73238   1.00
H2       0.85786    0.33590    1.08518   1.00
C5       0.85412    0.38385    1.12770   1.00
H2       0.80823    0.34497    1.10527   1.00
C5       0.69837    0.64605    0.92900   1.00
H2       0.67051    0.62005    0.98065   1.00
H2       0.71793    0.59772    0.96644   1.00
C5       0.46997    0.20595    0.86797   1.00
H2       0.46711    0.25715    0.82937   1.00
H2       0.51437    0.23041    0.82859   1.00
H2       0.60102    0.48479    0.74586   1.00
H2       0.64261    0.47036    0.71406   1.00
C5       0.58917    0.43566    0.70628   1.00
H2       0.86616    0.41223    1.11525   1.00
H2       0.83071    0.39070    1.15030   1.00
H2       0.87874    0.36672    1.14208   1.00
H2       0.68320    0.64237    0.89963   1.00
H2       0.68729    0.67370    0.94380   1.00
H2       0.73121    0.64839    0.92430   1.00
H2       0.45389    0.21624    0.89520   1.00
H2       0.44836    0.19186    0.84699   1.00
H2       0.49319    0.18373    0.87654   1.00
H2       0.55807    0.43913    0.71754   1.00
H2       0.59098    0.44700    0.67507   1.00
H2       0.59766    0.40352    0.70691   1.00
C5       0.29785    0.03282    0.86652   1.00
H2       0.31724    0.01755    0.84554   1.00
H2       0.28082    0.05410    0.84897   1.00
C5       0.27041    0.00306    0.88600   1.00
C5       0.23545    -0.00623   0.85936   1.00
H2       0.25941    0.01485    0.91419   1.00
O3       0.37714    0.18500    0.97485   1.00
C4       0.41538    0.14400    0.91482   1.00
C3c      0.38623    0.12257    0.89557   1.00
H1       0.36322    0.13775    0.88024   1.00
C3d      0.44541    0.12365    0.93414   1.00
C3       0.38592    0.08146    0.89621   1.00
O2       0.35932    0.06252    0.87284   1.00
C3       0.44478    0.08273    0.93547   1.00
H1       0.46765    0.06843    0.95181   1.00
C2       0.41528    0.06061    0.91652   1.00
C5       0.39906    0.18621    1.00972   1.00
H2       0.40363    0.21662    1.02032   1.00
H2       0.42825    0.17234    1.00570   1.00
C5       0.37639    0.16371    1.04068   1.00
H2       0.37087    0.13363    1.02962   1.00
H2       0.34746    0.17802    1.04471   1.00
C5       0.39900    0.16238    1.07947   1.00
H2       0.40486    0.19232    1.09055   1.00
H2       0.42730    0.14689    1.07578   1.00
C5       0.37498    0.14055    1.11053   1.00
C5       0.50463    0.15395    0.93174   1.00
C5       0.32509    0.05430    0.89437   1.00
H2       0.49508    0.17412    0.90817   1.00
H2       0.51860    0.12788    0.91813   1.00
H2       0.31132    0.08200    0.90453   1.00
H2       0.33102    0.03605    0.92079   1.00
H2       0.28562    -0.02530   0.89139   1.00
H2       0.55156    0.22253    0.91739   1.00
H2       0.57853    0.17737    0.91051   1.00
C2       0.41547    0.26895    0.91764   1.00
C3       0.43304    0.24903    0.88615   1.00
O2       0.45843    0.26826    0.86153   1.00
C3       0.39642    0.24674    0.94677   1.00
H1       0.38182    0.26115    0.97072   1.00
C3a      0.43211    0.20787    0.88498   1.00
H1       0.44761    0.19298    0.86188   1.00
C3b      0.39662    0.20578    0.94618   1.00
C4       0.41462    0.18600    0.91518   1.00
O3       0.47310    0.14333    0.95599   1.00
C5       0.43954    0.27780    0.82621   1.00
H2       0.42870    0.25109    0.81101   1.00
C5       0.46954    0.29826    0.80051   1.00
H2       0.41439    0.29774    0.83147   1.00
H2       0.48854    0.27568    0.78691   1.00
H2       0.48863    0.31593    0.82000   1.00
C5       0.45080    0.32418    0.76896   1.00
H2       0.42953    0.30676    0.75176   1.00
C5       0.48204    0.34047    0.74109   1.00
H2       0.43569    0.34993    0.78214   1.00
C5       0.53461    0.17483    0.95712   1.00
H2       0.54901    0.15285    0.97625   1.00
H2       0.51881    0.19548    0.97664   1.00
C5       0.56498    0.19700    0.93254   1.00
C5       0.59762    0.21275    0.95908   1.00
H2       0.24482    -0.02786   0.83590   1.00
C5       0.20230    -0.02412   0.88385   1.00
H2       0.22473    0.02177    0.84497   1.00
C5       0.40100    0.13163    1.14605   1.00
H2       0.34935    0.15949    1.12005   1.00
H2       0.36356    0.11207    1.09772   1.00
C5       0.46203    0.36003    0.70595   1.00
H2       0.50063    0.36289    0.75715   1.00
H2       0.50141    0.31563    0.73041   1.00
H2       0.58414    0.22898    0.98479   1.00
H2       0.61594    0.18739    0.97036   1.00
C5       0.62372    0.24083    0.93566   1.00
H2       0.21475    -0.03616   0.91223   1.00
H2       0.17970    -0.00071   0.89070   1.00
H2       0.18792    -0.04874   0.86672   1.00
H2       0.43037    0.14680    1.14237   1.00
H2       0.38620    0.14271    1.17370   1.00
H2       0.40570    0.09879    1.14839   1.00
H2       0.43480    0.37611    0.71624   1.00
H2       0.48301    0.38164    0.69186   1.00
H2       0.45346    0.33681    0.68373   1.00
H2       0.61246    0.27193    0.93913   1.00
H2       0.65493    0.23902    0.94700   1.00
H2       0.62309    0.23234    0.90352   1.00
C5       0.36652    0.29785    0.53282   1.00
H2       0.34554    0.31724    0.51755   1.00
H2       0.34897    0.28082    0.55410   1.00
C5       0.38600    0.27041    0.50306   1.00
C5       0.35936    0.23545    0.49377   1.00
H2       0.41419    0.25941    0.51485   1.00
O3       0.47485    0.37714    0.68500   1.00
C4       0.41482    0.41538    0.64400   1.00
C3c      0.39557    0.38623    0.62257   1.00
H1       0.38024    0.36322    0.63775   1.00
C3d      0.43414    0.44541    0.62365   1.00
C3       0.39621    0.38592    0.58146   1.00
O2       0.37284    0.35932    0.56252   1.00
C3       0.43547    0.44478    0.58273   1.00
H1       0.45181    0.46765    0.56843   1.00
C2       0.41652    0.41528    0.56061   1.00
C5       0.50972    0.39906    0.68621   1.00
H2       0.52032    0.40363    0.71662   1.00
H2       0.50570    0.42825    0.67234   1.00
C5       0.54068    0.37639    0.66371   1.00
H2       0.52962    0.37087    0.63363   1.00
H2       0.54471    0.34746    0.67802   1.00
C5       0.57947    0.39900    0.66238   1.00
H2       0.59055    0.40486    0.69232   1.00
H2       0.57578    0.42730    0.64689   1.00
C5       0.61053    0.37498    0.64055   1.00
C5       0.43174    0.50463    0.65395   1.00
C5       0.39437    0.32509    0.55430   1.00
H2       0.40817    0.49508    0.67412   1.00
H2       0.41813    0.51860    0.62788   1.00
H2       0.40453    0.31132    0.58200   1.00
H2       0.42079    0.33102    0.53605   1.00
H2       0.39139    0.28562    0.47470   1.00
H2       0.41739    0.55156    0.72253   1.00
H2       0.41051    0.57853    0.67737   1.00
C2       0.41764    0.41547    0.76895   1.00
C3       0.38615    0.43304    0.74903   1.00
O2       0.36153    0.45843    0.76826   1.00
C3       0.44677    0.39642    0.74674   1.00
H1       0.47072    0.38182    0.76115   1.00
C3a      0.38498    0.43211    0.70787   1.00
H1       0.36188    0.44761    0.69298   1.00
C3b      0.44618    0.39662    0.70578   1.00
C4       0.41518    0.41462    0.68600   1.00
O3       0.45599    0.47310    0.64333   1.00
C5       0.32621    0.43954    0.77780   1.00
H2       0.31101    0.42870    0.75109   1.00
C5       0.30051    0.46954    0.79826   1.00
H2       0.33147    0.41439    0.79774   1.00
H2       0.28691    0.48854    0.77568   1.00
H2       0.32000    0.48863    0.81593   1.00
C5       0.26896    0.45080    0.82418   1.00
H2       0.25176    0.42953    0.80676   1.00
C5       0.24109    0.48204    0.84047   1.00
H2       0.28214    0.43569    0.84993   1.00
C5       0.45712    0.53461    0.67483   1.00
H2       0.47625    0.54901    0.65285   1.00
H2       0.47664    0.51881    0.69548   1.00
C5       0.43254    0.56498    0.69700   1.00
C5       0.45908    0.59762    0.71275   1.00
H2       0.33590    0.24482    0.47214   1.00
C5       0.38385    0.20230    0.47588   1.00
H2       0.34497    0.22473    0.52177   1.00
C5       0.64605    0.40100    0.63163   1.00
H2       0.62005    0.34935    0.65949   1.00
H2       0.59772    0.36356    0.61207   1.00
C5       0.20595    0.46203    0.86003   1.00
H2       0.25715    0.50063    0.86289   1.00
H2       0.23041    0.50141    0.81563   1.00
H2       0.48479    0.58414    0.72898   1.00
H2       0.47036    0.61594    0.68739   1.00
C5       0.43566    0.62372    0.74083   1.00
H2       0.41223    0.21475    0.46384   1.00
H2       0.39070    0.17970    0.49929   1.00
H2       0.36672    0.18792    0.45126   1.00
H2       0.64237    0.43037    0.64680   1.00
H2       0.67370    0.38620    0.64271   1.00
H2       0.64839    0.40570    0.59879   1.00
H2       0.21624    0.43480    0.87611   1.00
H2       0.19186    0.48301    0.88164   1.00
H2       0.18373    0.45346    0.83681   1.00
H2       0.43913    0.61246    0.77193   1.00
H2       0.44700    0.65493    0.73902   1.00
H2       0.40352    0.62309    0.73234   1.00
C5       0.36652    1.03215    0.79718   1.00
H2       0.34554    1.01276    0.81245   1.00
H2       0.34897    1.04918    0.77590   1.00
C5       0.38600    1.05959    0.82694   1.00
C5       0.35936    1.09455    0.83623   1.00
H2       0.41419    1.07059    0.81515   1.00
O3       0.47485    0.95286    0.64500   1.00
C4       0.41482    0.91462    0.68600   1.00
C3c      0.39557    0.94377    0.70743   1.00
H1       0.38024    0.96678    0.69225   1.00
C3d      0.43414    0.88459    0.70635   1.00
C3       0.39621    0.94408    0.74854   1.00
O2       0.37284    0.97068    0.76748   1.00
C3       0.43547    0.88522    0.74727   1.00
H1       0.45181    0.86235    0.76157   1.00
C2       0.41652    0.91472    0.76939   1.00
C5       0.50972    0.93094    0.64379   1.00
H2       0.52032    0.92637    0.61338   1.00
H2       0.50570    0.90175    0.65766   1.00
C5       0.54068    0.95361    0.66629   1.00
H2       0.52962    0.95913    0.69637   1.00
H2       0.54471    0.98254    0.65198   1.00
C5       0.57947    0.93100    0.66762   1.00
H2       0.59055    0.92514    0.63768   1.00
H2       0.57578    0.90270    0.68311   1.00
C5       0.61053    0.95502    0.68945   1.00
C5       0.43174    0.82537    0.67605   1.00
C5       0.39437    1.00491    0.77570   1.00
H2       0.40817    0.83492    0.65588   1.00
H2       0.41813    0.81140    0.70212   1.00
H2       0.40453    1.01868    0.74800   1.00
H2       0.42079    0.99898    0.79395   1.00
H2       0.39139    1.04438    0.85530   1.00
H2       0.41739    0.77844    0.60747   1.00
H2       0.41051    0.75147    0.65263   1.00
C2       0.41764    0.91453    0.56105   1.00
C3       0.38615    0.89696    0.58097   1.00
O2       0.36153    0.87157    0.56174   1.00
C3       0.44677    0.93358    0.58326   1.00
H1       0.47072    0.94818    0.56885   1.00
C3a      0.38498    0.89789    0.62213   1.00
H1       0.36188    0.88239    0.63702   1.00
C3b      0.44618    0.93338    0.62422   1.00
C4       0.41518    0.91538    0.64400   1.00
O3       0.45599    0.85690    0.68667   1.00
C5       0.32621    0.89046    0.55220   1.00
H2       0.31101    0.90130    0.57891   1.00
C5       0.30051    0.86046    0.53174   1.00
H2       0.33147    0.91561    0.53226   1.00
H2       0.28691    0.84146    0.55432   1.00
H2       0.32000    0.84137    0.51407   1.00
C5       0.26896    0.87920    0.50582   1.00
H2       0.25176    0.90047    0.52324   1.00
C5       0.24109    0.84796    0.48953   1.00
H2       0.28214    0.89431    0.48007   1.00
C5       0.45712    0.79539    0.65517   1.00
H2       0.47625    0.78099    0.67715   1.00
H2       0.47664    0.81119    0.63452   1.00
C5       0.43254    0.76502    0.63300   1.00
C5       0.45908    0.73238    0.61725   1.00
H2       0.33590    1.08518    0.85786   1.00
C5       0.38385    1.12770    0.85412   1.00
H2       0.34497    1.10527    0.80823   1.00
C5       0.64605    0.92900    0.69837   1.00
H2       0.62005    0.98065    0.67051   1.00
H2       0.59772    0.96644    0.71793   1.00
C5       0.20595    0.86797    0.46997   1.00
H2       0.25715    0.82937    0.46711   1.00
H2       0.23041    0.82859    0.51437   1.00
H2       0.48479    0.74586    0.60102   1.00
H2       0.47036    0.71406    0.64261   1.00
C5       0.43566    0.70628    0.58917   1.00
H2       0.41223    1.11525    0.86616   1.00
H2       0.39070    1.15030    0.83071   1.00
H2       0.36672    1.14208    0.87874   1.00
H2       0.64237    0.89963    0.68320   1.00
H2       0.67370    0.94380    0.68729   1.00
H2       0.64839    0.92430    0.73121   1.00
H2       0.21624    0.89520    0.45389   1.00
H2       0.19186    0.84699    0.44836   1.00
H2       0.18373    0.87654    0.49319   1.00
H2       0.43913    0.71754    0.55807   1.00
H2       0.44700    0.67507    0.59098   1.00
H2       0.40352    0.70691    0.59766   1.00
C5       0.53215    1.29718    0.36652   1.00
H2       0.51276    1.31245    0.34554   1.00
H2       0.54918    1.27590    0.34897   1.00
C5       0.55959    1.32694    0.38600   1.00
C5       0.59455    1.33623    0.35936   1.00
H2       0.57059    1.31515    0.41419   1.00
O3       0.45286    1.14500    0.47485   1.00
C4       0.41462    1.18600    0.41482   1.00
C3c      0.44377    1.20743    0.39557   1.00
H1       0.46678    1.19225    0.38024   1.00
C3d      0.38459    1.20635    0.43414   1.00
C3       0.44408    1.24854    0.39621   1.00
O2       0.47068    1.26748    0.37284   1.00
C3       0.38522    1.24727    0.43547   1.00
H1       0.36235    1.26157    0.45181   1.00
C2       0.41472    1.26939    0.41652   1.00
C5       0.43094    1.14379    0.50972   1.00
H2       0.42637    1.11338    0.52032   1.00
H2       0.40175    1.15766    0.50570   1.00
C5       0.45361    1.16629    0.54068   1.00
H2       0.45913    1.19637    0.52962   1.00
H2       0.48254    1.15198    0.54471   1.00
C5       0.43100    1.16762    0.57947   1.00
H2       0.42514    1.13768    0.59055   1.00
H2       0.40270    1.18311    0.57578   1.00
C5       0.45502    1.18945    0.61053   1.00
C5       0.32537    1.17605    0.43174   1.00
C5       0.50491    1.27570    0.39437   1.00
H2       0.33492    1.15588    0.40817   1.00
H2       0.31140    1.20212    0.41813   1.00
H2       0.51868    1.24800    0.40453   1.00
H2       0.49898    1.29395    0.42079   1.00
H2       0.54438    1.35530    0.39139   1.00
H2       0.27844    1.10747    0.41739   1.00
H2       0.25147    1.15263    0.41051   1.00
C2       0.41453    1.06105    0.41764   1.00
C3       0.39696    1.08097    0.38615   1.00
O2       0.37157    1.06174    0.36153   1.00
C3       0.43358    1.08326    0.44677   1.00
H1       0.44818    1.06885    0.47072   1.00
C3a      0.39789    1.12213    0.38498   1.00
H1       0.38239    1.13702    0.36188   1.00
C3b      0.43338    1.12422    0.44618   1.00
C4       0.41538    1.14400    0.41518   1.00
O3       0.35690    1.18667    0.45599   1.00
C5       0.39046    1.05220    0.32621   1.00
H2       0.40130    1.07891    0.31101   1.00
C5       0.36046    1.03174    0.30051   1.00
H2       0.41561    1.03226    0.33147   1.00
H2       0.34146    1.05432    0.28691   1.00
H2       0.34137    1.01407    0.32000   1.00
C5       0.37920    1.00582    0.26896   1.00
H2       0.40047    1.02324    0.25176   1.00
C5       0.34796    0.98953    0.24109   1.00
H2       0.39431    0.98007    0.28214   1.00
C5       0.29539    1.15517    0.45712   1.00
H2       0.28099    1.17715    0.47625   1.00
H2       0.31119    1.13452    0.47664   1.00
C5       0.26502    1.13300    0.43254   1.00
C5       0.23238    1.11725    0.45908   1.00
H2       0.58518    1.35786    0.33590   1.00
C5       0.62770    1.35412    0.38385   1.00
H2       0.60527    1.30823    0.34497   1.00
C5       0.42900    1.19837    0.64605   1.00
H2       0.48065    1.17051    0.62005   1.00
H2       0.46644    1.21793    0.59772   1.00
C5       0.36797    0.96997    0.20595   1.00
H2       0.32937    0.96711    0.25715   1.00
H2       0.32859    1.01437    0.23041   1.00
H2       0.24586    1.10102    0.48479   1.00
H2       0.21406    1.14261    0.47036   1.00
C5       0.20628    1.08917    0.43566   1.00
H2       0.61525    1.36616    0.41223   1.00
H2       0.65030    1.33071    0.39070   1.00
H2       0.64208    1.37874    0.36672   1.00
H2       0.39963    1.18320    0.64237   1.00
H2       0.44380    1.18729    0.67370   1.00
H2       0.42430    1.23121    0.64839   1.00
H2       0.39520    0.95389    0.21624   1.00
H2       0.34699    0.94836    0.19186   1.00
H2       0.37654    0.99319    0.18373   1.00
H2       0.21754    1.05807    0.43913   1.00
H2       0.17507    1.09098    0.44700   1.00
H2       0.20691    1.09766    0.40352   1.00
C5       0.03282    0.86652    0.29785   1.00
H2       0.01755    0.84554    0.31724   1.00
H2       0.05410    0.84897    0.28082   1.00
C5       0.00306    0.88600    0.27041   1.00
C5       -0.00623   0.85936    0.23545   1.00
H2       0.01485    0.91419    0.25941   1.00
O3       0.18500    0.97485    0.37714   1.00
C4       0.14400    0.91482    0.41538   1.00
C3c      0.12257    0.89557    0.38623   1.00
H1       0.13775    0.88024    0.36322   1.00
C3d      0.12365    0.93414    0.44541   1.00
C3       0.08146    0.89621    0.38592   1.00
O2       0.06252    0.87284    0.35932   1.00
C3       0.08273    0.93547    0.44478   1.00
H1       0.06843    0.95181    0.46765   1.00
C2       0.06061    0.91652    0.41528   1.00
C5       0.18621    1.00972    0.39906   1.00
H2       0.21662    1.02032    0.40363   1.00
H2       0.17234    1.00570    0.42825   1.00
C5       0.16371    1.04068    0.37639   1.00
H2       0.13363    1.02962    0.37087   1.00
H2       0.17802    1.04471    0.34746   1.00
C5       0.16238    1.07947    0.39900   1.00
H2       0.19232    1.09055    0.40486   1.00
H2       0.14689    1.07578    0.42730   1.00
C5       0.14055    1.11053    0.37498   1.00
C5       0.15395    0.93174    0.50463   1.00
C5       0.05430    0.89437    0.32509   1.00
H2       0.17412    0.90817    0.49508   1.00
H2       0.12788    0.91813    0.51860   1.00
H2       0.08200    0.90453    0.31132   1.00
H2       0.03605    0.92079    0.33102   1.00
H2       -0.02530   0.89139    0.28562   1.00
H2       0.22253    0.91739    0.55156   1.00
H2       0.17737    0.91051    0.57853   1.00
C2       0.26895    0.91764    0.41547   1.00
C3       0.24903    0.88615    0.43304   1.00
O2       0.26826    0.86153    0.45843   1.00
C3       0.24674    0.94677    0.39642   1.00
H1       0.26115    0.97072    0.38182   1.00
C3a      0.20787    0.88498    0.43211   1.00
H1       0.19298    0.86188    0.44761   1.00
C3b      0.20578    0.94618    0.39662   1.00
C4       0.18600    0.91518    0.41462   1.00
O3       0.14333    0.95599    0.47310   1.00
C5       0.27780    0.82621    0.43954   1.00
H2       0.25109    0.81101    0.42870   1.00
C5       0.29826    0.80051    0.46954   1.00
H2       0.29774    0.83147    0.41439   1.00
H2       0.27568    0.78691    0.48854   1.00
H2       0.31593    0.82000    0.48863   1.00
C5       0.32418    0.76896    0.45080   1.00
H2       0.30676    0.75176    0.42953   1.00
C5       0.34047    0.74109    0.48204   1.00
H2       0.34993    0.78214    0.43569   1.00
C5       0.17483    0.95712    0.53461   1.00
H2       0.15285    0.97625    0.54901   1.00
H2       0.19548    0.97664    0.51881   1.00
C5       0.19700    0.93254    0.56498   1.00
C5       0.21275    0.95908    0.59762   1.00
H2       -0.02786   0.83590    0.24482   1.00
C5       -0.02412   0.88385    0.20230   1.00
H2       0.02177    0.84497    0.22473   1.00
C5       0.13163    1.14605    0.40100   1.00
H2       0.15949    1.12005    0.34935   1.00
H2       0.11207    1.09772    0.36356   1.00
C5       0.36003    0.70595    0.46203   1.00
H2       0.36289    0.75715    0.50063   1.00
H2       0.31563    0.73041    0.50141   1.00
H2       0.22898    0.98479    0.58414   1.00
H2       0.18739    0.97036    0.61594   1.00
C5       0.24083    0.93566    0.62372   1.00
H2       -0.03616   0.91223    0.21475   1.00
H2       -0.00071   0.89070    0.17970   1.00
H2       -0.04874   0.86672    0.18792   1.00
H2       0.14680    1.14237    0.43037   1.00
H2       0.14271    1.17370    0.38620   1.00
H2       0.09879    1.14839    0.40570   1.00
H2       0.37611    0.71624    0.43480   1.00
H2       0.38164    0.69186    0.48301   1.00
H2       0.33681    0.68373    0.45346   1.00
H2       0.27193    0.93913    0.61246   1.00
H2       0.23902    0.94700    0.65493   1.00
H2       0.23234    0.90352    0.62309   1.00
C5       0.79718    0.86652    0.53215   1.00
H2       0.81245    0.84554    0.51276   1.00
H2       0.77590    0.84897    0.54918   1.00
C5       0.82694    0.88600    0.55959   1.00
C5       0.83623    0.85936    0.59455   1.00
H2       0.81515    0.91419    0.57059   1.00
O3       0.64500    0.97485    0.45286   1.00
C4       0.68600    0.91482    0.41462   1.00
C3c      0.70743    0.89557    0.44377   1.00
H1       0.69225    0.88024    0.46678   1.00
C3d      0.70635    0.93414    0.38459   1.00
C3       0.74854    0.89621    0.44408   1.00
O2       0.76748    0.87284    0.47068   1.00
C3       0.74727    0.93547    0.38522   1.00
H1       0.76157    0.95181    0.36235   1.00
C2       0.76939    0.91652    0.41472   1.00
C5       0.64379    1.00972    0.43094   1.00
H2       0.61338    1.02032    0.42637   1.00
H2       0.65766    1.00570    0.40175   1.00
C5       0.66629    1.04068    0.45361   1.00
H2       0.69637    1.02962    0.45913   1.00
H2       0.65198    1.04471    0.48254   1.00
C5       0.66762    1.07947    0.43100   1.00
H2       0.63768    1.09055    0.42514   1.00
H2       0.68311    1.07578    0.40270   1.00
C5       0.68945    1.11053    0.45502   1.00
C5       0.67605    0.93174    0.32537   1.00
C5       0.77570    0.89437    0.50491   1.00
H2       0.65588    0.90817    0.33492   1.00
H2       0.70212    0.91813    0.31140   1.00
H2       0.74800    0.90453    0.51868   1.00
H2       0.79395    0.92079    0.49898   1.00
H2       0.85530    0.89139    0.54438   1.00
H2       0.60747    0.91739    0.27844   1.00
H2       0.65263    0.91051    0.25147   1.00
C2       0.56105    0.91764    0.41453   1.00
C3       0.58097    0.88615    0.39696   1.00
O2       0.56174    0.86153    0.37157   1.00
C3       0.58326    0.94677    0.43358   1.00
H1       0.56885    0.97072    0.44818   1.00
C3a      0.62213    0.88498    0.39789   1.00
H1       0.63702    0.86188    0.38239   1.00
C3b      0.62422    0.94618    0.43338   1.00
C4       0.64400    0.91518    0.41538   1.00
O3       0.68667    0.95599    0.35690   1.00
C5       0.55220    0.82621    0.39046   1.00
H2       0.57891    0.81101    0.40130   1.00
C5       0.53174    0.80051    0.36046   1.00
H2       0.53226    0.83147    0.41561   1.00
H2       0.55432    0.78691    0.34146   1.00
H2       0.51407    0.82000    0.34137   1.00
C5       0.50582    0.76896    0.37920   1.00
H2       0.52324    0.75176    0.40047   1.00
C5       0.48953    0.74109    0.34796   1.00
H2       0.48007    0.78214    0.39431   1.00
C5       0.65517    0.95712    0.29539   1.00
H2       0.67715    0.97625    0.28099   1.00
H2       0.63452    0.97664    0.31119   1.00
C5       0.63300    0.93254    0.26502   1.00
C5       0.61725    0.95908    0.23238   1.00
H2       0.85786    0.83590    0.58518   1.00
C5       0.85412    0.88385    0.62770   1.00
H2       0.80823    0.84497    0.60527   1.00
C5       0.69837    1.14605    0.42900   1.00
H2       0.67051    1.12005    0.48065   1.00
H2       0.71793    1.09772    0.46644   1.00
C5       0.46997    0.70595    0.36797   1.00
H2       0.46711    0.75715    0.32937   1.00
H2       0.51437    0.73041    0.32859   1.00
H2       0.60102    0.98479    0.24586   1.00
H2       0.64261    0.97036    0.21406   1.00
C5       0.58917    0.93566    0.20628   1.00
H2       0.86616    0.91223    0.61525   1.00
H2       0.83071    0.89070    0.65030   1.00
H2       0.87874    0.86672    0.64208   1.00
H2       0.68320    1.14237    0.39963   1.00
H2       0.68729    1.17370    0.44380   1.00
H2       0.73121    1.14839    0.42430   1.00
H2       0.45389    0.71624    0.39520   1.00
H2       0.44836    0.69186    0.34699   1.00
H2       0.49319    0.68373    0.37654   1.00
H2       0.55807    0.93913    0.21754   1.00
H2       0.59098    0.94700    0.17507   1.00
H2       0.59766    0.90352    0.20691   1.00
C5       0.29785    0.53282    0.36652   1.00
H2       0.31724    0.51755    0.34554   1.00
H2       0.28082    0.55410    0.34897   1.00
C5       0.27041    0.50306    0.38600   1.00
C5       0.23545    0.49377    0.35936   1.00
H2       0.25941    0.51485    0.41419   1.00
O3       0.37714    0.68500    0.47485   1.00
C4       0.41538    0.64400    0.41482   1.00
C3c      0.38623    0.62257    0.39557   1.00
H1       0.36322    0.63775    0.38024   1.00
C3d      0.44541    0.62365    0.43414   1.00
C3       0.38592    0.58146    0.39621   1.00
O2       0.35932    0.56252    0.37284   1.00
C3       0.44478    0.58273    0.43547   1.00
H1       0.46765    0.56843    0.45181   1.00
C2       0.41528    0.56061    0.41652   1.00
C5       0.39906    0.68621    0.50972   1.00
H2       0.40363    0.71662    0.52032   1.00
H2       0.42825    0.67234    0.50570   1.00
C5       0.37639    0.66371    0.54068   1.00
H2       0.37087    0.63363    0.52962   1.00
H2       0.34746    0.67802    0.54471   1.00
C5       0.39900    0.66238    0.57947   1.00
H2       0.40486    0.69232    0.59055   1.00
H2       0.42730    0.64689    0.57578   1.00
C5       0.37498    0.64055    0.61053   1.00
C5       0.50463    0.65395    0.43174   1.00
C5       0.32509    0.55430    0.39437   1.00
H2       0.49508    0.67412    0.40817   1.00
H2       0.51860    0.62788    0.41813   1.00
H2       0.31132    0.58200    0.40453   1.00
H2       0.33102    0.53605    0.42079   1.00
H2       0.28562    0.47470    0.39139   1.00
H2       0.55156    0.72253    0.41739   1.00
H2       0.57853    0.67737    0.41051   1.00
C2       0.41547    0.76895    0.41764   1.00
C3       0.43304    0.74903    0.38615   1.00
O2       0.45843    0.76826    0.36153   1.00
C3       0.39642    0.74674    0.44677   1.00
H1       0.38182    0.76115    0.47072   1.00
C3a      0.43211    0.70787    0.38498   1.00
H1       0.44761    0.69298    0.36188   1.00
C3b      0.39662    0.70578    0.44618   1.00
C4       0.41462    0.68600    0.41518   1.00
O3       0.47310    0.64333    0.45599   1.00
C5       0.43954    0.77780    0.32621   1.00
H2       0.42870    0.75109    0.31101   1.00
C5       0.46954    0.79826    0.30051   1.00
H2       0.41439    0.79774    0.33147   1.00
H2       0.48854    0.77568    0.28691   1.00
H2       0.48863    0.81593    0.32000   1.00
C5       0.45080    0.82418    0.26896   1.00
H2       0.42953    0.80676    0.25176   1.00
C5       0.48204    0.84047    0.24109   1.00
H2       0.43569    0.84993    0.28214   1.00
C5       0.53461    0.67483    0.45712   1.00
H2       0.54901    0.65285    0.47625   1.00
H2       0.51881    0.69548    0.47664   1.00
C5       0.56498    0.69700    0.43254   1.00
C5       0.59762    0.71275    0.45908   1.00
H2       0.24482    0.47214    0.33590   1.00
C5       0.20230    0.47588    0.38385   1.00
H2       0.22473    0.52177    0.34497   1.00
C5       0.40100    0.63163    0.64605   1.00
H2       0.34935    0.65949    0.62005   1.00
H2       0.36356    0.61207    0.59772   1.00
C5       0.46203    0.86003    0.20595   1.00
H2       0.50063    0.86289    0.25715   1.00
H2       0.50141    0.81563    0.23041   1.00
H2       0.58414    0.72898    0.48479   1.00
H2       0.61594    0.68739    0.47036   1.00
C5       0.62372    0.74083    0.43566   1.00
H2       0.21475    0.46384    0.41223   1.00
H2       0.17970    0.49929    0.39070   1.00
H2       0.18792    0.45126    0.36672   1.00
H2       0.43037    0.64680    0.64237   1.00
H2       0.38620    0.64271    0.67370   1.00
H2       0.40570    0.59879    0.64839   1.00
H2       0.43480    0.87611    0.21624   1.00
H2       0.48301    0.88164    0.19186   1.00
H2       0.45346    0.83681    0.18373   1.00
H2       0.61246    0.77193    0.43913   1.00
H2       0.65493    0.73902    0.44700   1.00
H2       0.62309    0.73234    0.40352   1.00
C5       0.36652    0.79785    0.03282   1.00
H2       0.34554    0.81724    0.01755   1.00
H2       0.34897    0.78082    0.05410   1.00
C5       0.38600    0.77041    0.00306   1.00
C5       0.35936    0.73545    -0.00623   1.00
H2       0.41419    0.75941    0.01485   1.00
O3       0.47485    0.87714    0.18500   1.00
C4       0.41482    0.91538    0.14400   1.00
C3c      0.39557    0.88623    0.12257   1.00
H1       0.38024    0.86322    0.13775   1.00
C3d      0.43414    0.94541    0.12365   1.00
C3       0.39621    0.88592    0.08146   1.00
O2       0.37284    0.85932    0.06252   1.00
C3       0.43547    0.94478    0.08273   1.00
H1       0.45181    0.96765    0.06843   1.00
C2       0.41652    0.91528    0.06061   1.00
C5       0.50972    0.89906    0.18621   1.00
H2       0.52032    0.90363    0.21662   1.00
H2       0.50570    0.92825    0.17234   1.00
C5       0.54068    0.87639    0.16371   1.00
H2       0.52962    0.87087    0.13363   1.00
H2       0.54471    0.84746    0.17802   1.00
C5       0.57947    0.89900    0.16238   1.00
H2       0.59055    0.90486    0.19232   1.00
H2       0.57578    0.92730    0.14689   1.00
C5       0.61053    0.87498    0.14055   1.00
C5       0.43174    1.00463    0.15395   1.00
C5       0.39437    0.82509    0.05430   1.00
H2       0.40817    0.99508    0.17412   1.00
H2       0.41813    1.01860    0.12788   1.00
H2       0.40453    0.81132    0.08200   1.00
H2       0.42079    0.83102    0.03605   1.00
H2       0.39139    0.78562    -0.02530   1.00
H2       0.41739    1.05156    0.22253   1.00
H2       0.41051    1.07853    0.17737   1.00
C2       0.41764    0.91547    0.26895   1.00
C3       0.38615    0.93304    0.24903   1.00
O2       0.36153    0.95843    0.26826   1.00
C3       0.44677    0.89642    0.24674   1.00
H1       0.47072    0.88182    0.26115   1.00
C3a      0.38498    0.93211    0.20787   1.00
H1       0.36188    0.94761    0.19298   1.00
C3b      0.44618    0.89662    0.20578   1.00
C4       0.41518    0.91462    0.18600   1.00
O3       0.45599    0.97310    0.14333   1.00
C5       0.32621    0.93954    0.27780   1.00
H2       0.31101    0.92870    0.25109   1.00
C5       0.30051    0.96954    0.29826   1.00
H2       0.33147    0.91439    0.29774   1.00
H2       0.28691    0.98854    0.27568   1.00
H2       0.32000    0.98863    0.31593   1.00
C5       0.26896    0.95080    0.32418   1.00
H2       0.25176    0.92953    0.30676   1.00
C5       0.24109    0.98204    0.34047   1.00
H2       0.28214    0.93569    0.34993   1.00
C5       0.45712    1.03461    0.17483   1.00
H2       0.47625    1.04901    0.15285   1.00
H2       0.47664    1.01881    0.19548   1.00
C5       0.43254    1.06498    0.19700   1.00
C5       0.45908    1.09762    0.21275   1.00
H2       0.33590    0.74482    -0.02786   1.00
C5       0.38385    0.70230    -0.02412   1.00
H2       0.34497    0.72473    0.02177   1.00
C5       0.64605    0.90100    0.13163   1.00
H2       0.62005    0.84935    0.15949   1.00
H2       0.59772    0.86356    0.11207   1.00
C5       0.20595    0.96203    0.36003   1.00
H2       0.25715    1.00063    0.36289   1.00
H2       0.23041    1.00141    0.31563   1.00
H2       0.48479    1.08414    0.22898   1.00
H2       0.47036    1.11594    0.18739   1.00
C5       0.43566    1.12372    0.24083   1.00
H2       0.41223    0.71475    -0.03616   1.00
H2       0.39070    0.67970    -0.00071   1.00
H2       0.36672    0.68792    -0.04874   1.00
H2       0.64237    0.93037    0.14680   1.00
H2       0.67370    0.88620    0.14271   1.00
H2       0.64839    0.90570    0.09879   1.00
H2       0.21624    0.93480    0.37611   1.00
H2       0.19186    0.98301    0.38164   1.00
H2       0.18373    0.95346    0.33681   1.00
H2       0.43913    1.11246    0.27193   1.00
H2       0.44700    1.15493    0.23902   1.00
H2       0.40352    1.12309    0.23234   1.00
C5       0.86652    0.53215    0.79718   1.00
H2       0.84554    0.51276    0.81245   1.00
H2       0.84897    0.54918    0.77590   1.00
C5       0.88600    0.55959    0.82694   1.00
C5       0.85936    0.59455    0.83623   1.00
H2       0.91419    0.57059    0.81515   1.00
O3       0.97485    0.45286    0.64500   1.00
C4       0.91482    0.41462    0.68600   1.00
C3c      0.89557    0.44377    0.70743   1.00
H1       0.88024    0.46678    0.69225   1.00
C3d      0.93414    0.38459    0.70635   1.00
C3       0.89621    0.44408    0.74854   1.00
O2       0.87284    0.47068    0.76748   1.00
C3       0.93547    0.38522    0.74727   1.00
H1       0.95181    0.36235    0.76157   1.00
C2       0.91652    0.41472    0.76939   1.00
C5       1.00972    0.43094    0.64379   1.00
H2       1.02032    0.42637    0.61338   1.00
H2       1.00570    0.40175    0.65766   1.00
C5       1.04068    0.45361    0.66629   1.00
H2       1.02962    0.45913    0.69637   1.00
H2       1.04471    0.48254    0.65198   1.00
C5       1.07947    0.43100    0.66762   1.00
H2       1.09055    0.42514    0.63768   1.00
H2       1.07578    0.40270    0.68311   1.00
C5       1.11053    0.45502    0.68945   1.00
C5       0.93174    0.32537    0.67605   1.00
C5       0.89437    0.50491    0.77570   1.00
H2       0.90817    0.33492    0.65588   1.00
H2       0.91813    0.31140    0.70212   1.00
H2       0.90453    0.51868    0.74800   1.00
H2       0.92079    0.49898    0.79395   1.00
H2       0.89139    0.54438    0.85530   1.00
H2       0.91739    0.27844    0.60747   1.00
H2       0.91051    0.25147    0.65263   1.00
C2       0.91764    0.41453    0.56105   1.00
C3       0.88615    0.39696    0.58097   1.00
O2       0.86153    0.37157    0.56174   1.00
C3       0.94677    0.43358    0.58326   1.00
H1       0.97072    0.44818    0.56885   1.00
C3a      0.88498    0.39789    0.62213   1.00
H1       0.86188    0.38239    0.63702   1.00
C3b      0.94618    0.43338    0.62422   1.00
C4       0.91518    0.41538    0.64400   1.00
O3       0.95599    0.35690    0.68667   1.00
C5       0.82621    0.39046    0.55220   1.00
H2       0.81101    0.40130    0.57891   1.00
C5       0.80051    0.36046    0.53174   1.00
H2       0.83147    0.41561    0.53226   1.00
H2       0.78691    0.34146    0.55432   1.00
H2       0.82000    0.34137    0.51407   1.00
C5       0.76896    0.37920    0.50582   1.00
H2       0.75176    0.40047    0.52324   1.00
C5       0.74109    0.34796    0.48953   1.00
H2       0.78214    0.39431    0.48007   1.00
C5       0.95712    0.29539    0.65517   1.00
H2       0.97625    0.28099    0.67715   1.00
H2       0.97664    0.31119    0.63452   1.00
C5       0.93254    0.26502    0.63300   1.00
C5       0.95908    0.23238    0.61725   1.00
H2       0.83590    0.58518    0.85786   1.00
C5       0.88385    0.62770    0.85412   1.00
H2       0.84497    0.60527    0.80823   1.00
C5       1.14605    0.42900    0.69837   1.00
H2       1.12005    0.48065    0.67051   1.00
H2       1.09772    0.46644    0.71793   1.00
C5       0.70595    0.36797    0.46997   1.00
H2       0.75715    0.32937    0.46711   1.00
H2       0.73041    0.32859    0.51437   1.00
H2       0.98479    0.24586    0.60102   1.00
H2       0.97036    0.21406    0.64261   1.00
C5       0.93566    0.20628    0.58917   1.00
H2       0.91223    0.61525    0.86616   1.00
H2       0.89070    0.65030    0.83071   1.00
H2       0.86672    0.64208    0.87874   1.00
H2       1.14237    0.39963    0.68320   1.00
H2       1.17370    0.44380    0.68729   1.00
H2       1.14839    0.42430    0.73121   1.00
H2       0.71624    0.39520    0.45389   1.00
H2       0.69186    0.34699    0.44836   1.00
H2       0.68373    0.37654    0.49319   1.00
H2       0.93913    0.21754    0.55807   1.00
H2       0.94700    0.17507    0.59098   1.00
H2       0.90352    0.20691    0.59766   1.00
C5       1.03215    0.79718    0.36652   1.00
H2       1.01276    0.81245    0.34554   1.00
H2       1.04918    0.77590    0.34897   1.00
C5       1.05959    0.82694    0.38600   1.00
C5       1.09455    0.83623    0.35936   1.00
H2       1.07059    0.81515    0.41419   1.00
O3       0.95286    0.64500    0.47485   1.00
C4       0.91462    0.68600    0.41482   1.00
C3c      0.94377    0.70743    0.39557   1.00
H1       0.96678    0.69225    0.38024   1.00
C3d      0.88459    0.70635    0.43414   1.00
C3       0.94408    0.74854    0.39621   1.00
O2       0.97068    0.76748    0.37284   1.00
C3       0.88522    0.74727    0.43547   1.00
H1       0.86235    0.76157    0.45181   1.00
C2       0.91472    0.76939    0.41652   1.00
C5       0.93094    0.64379    0.50972   1.00
H2       0.92637    0.61338    0.52032   1.00
H2       0.90175    0.65766    0.50570   1.00
C5       0.95361    0.66629    0.54068   1.00
H2       0.95913    0.69637    0.52962   1.00
H2       0.98254    0.65198    0.54471   1.00
C5       0.93100    0.66762    0.57947   1.00
H2       0.92514    0.63768    0.59055   1.00
H2       0.90270    0.68311    0.57578   1.00
C5       0.95502    0.68945    0.61053   1.00
C5       0.82537    0.67605    0.43174   1.00
C5       1.00491    0.77570    0.39437   1.00
H2       0.83492    0.65588    0.40817   1.00
H2       0.81140    0.70212    0.41813   1.00
H2       1.01868    0.74800    0.40453   1.00
H2       0.99898    0.79395    0.42079   1.00
H2       1.04438    0.85530    0.39139   1.00
H2       0.77844    0.60747    0.41739   1.00
H2       0.75147    0.65263    0.41051   1.00
C2       0.91453    0.56105    0.41764   1.00
C3       0.89696    0.58097    0.38615   1.00
O2       0.87157    0.56174    0.36153   1.00
C3       0.93358    0.58326    0.44677   1.00
H1       0.94818    0.56885    0.47072   1.00
C3a      0.89789    0.62213    0.38498   1.00
H1       0.88239    0.63702    0.36188   1.00
C3b      0.93338    0.62422    0.44618   1.00
C4       0.91538    0.64400    0.41518   1.00
O3       0.85690    0.68667    0.45599   1.00
C5       0.89046    0.55220    0.32621   1.00
H2       0.90130    0.57891    0.31101   1.00
C5       0.86046    0.53174    0.30051   1.00
H2       0.91561    0.53226    0.33147   1.00
H2       0.84146    0.55432    0.28691   1.00
H2       0.84137    0.51407    0.32000   1.00
C5       0.87920    0.50582    0.26896   1.00
H2       0.90047    0.52324    0.25176   1.00
C5       0.84796    0.48953    0.24109   1.00
H2       0.89431    0.48007    0.28214   1.00
C5       0.79539    0.65517    0.45712   1.00
H2       0.78099    0.67715    0.47625   1.00
H2       0.81119    0.63452    0.47664   1.00
C5       0.76502    0.63300    0.43254   1.00
C5       0.73238    0.61725    0.45908   1.00
H2       1.08518    0.85786    0.33590   1.00
C5       1.12770    0.85412    0.38385   1.00
H2       1.10527    0.80823    0.34497   1.00
C5       0.92900    0.69837    0.64605   1.00
H2       0.98065    0.67051    0.62005   1.00
H2       0.96644    0.71793    0.59772   1.00
C5       0.86797    0.46997    0.20595   1.00
H2       0.82937    0.46711    0.25715   1.00
H2       0.82859    0.51437    0.23041   1.00
H2       0.74586    0.60102    0.48479   1.00
H2       0.71406    0.64261    0.47036   1.00
C5       0.70628    0.58917    0.43566   1.00
H2       1.11525    0.86616    0.41223   1.00
H2       1.15030    0.83071    0.39070   1.00
H2       1.14208    0.87874    0.36672   1.00
H2       0.89963    0.68320    0.64237   1.00
H2       0.94380    0.68729    0.67370   1.00
H2       0.92430    0.73121    0.64839   1.00
H2       0.89520    0.45389    0.21624   1.00
H2       0.84699    0.44836    0.19186   1.00
H2       0.87654    0.49319    0.18373   1.00
H2       0.71754    0.55807    0.43913   1.00
H2       0.67507    0.59098    0.44700   1.00
H2       0.70691    0.59766    0.40352   1.00
C5       0.53282    0.36652    0.29785   1.00
H2       0.51755    0.34554    0.31724   1.00
H2       0.55410    0.34897    0.28082   1.00
C5       0.50306    0.38600    0.27041   1.00
C5       0.49377    0.35936    0.23545   1.00
H2       0.51485    0.41419    0.25941   1.00
O3       0.68500    0.47485    0.37714   1.00
C4       0.64400    0.41482    0.41538   1.00
C3c      0.62257    0.39557    0.38623   1.00
H1       0.63775    0.38024    0.36322   1.00
C3d      0.62365    0.43414    0.44541   1.00
C3       0.58146    0.39621    0.38592   1.00
O2       0.56252    0.37284    0.35932   1.00
C3       0.58273    0.43547    0.44478   1.00
H1       0.56843    0.45181    0.46765   1.00
C2       0.56061    0.41652    0.41528   1.00
C5       0.68621    0.50972    0.39906   1.00
H2       0.71662    0.52032    0.40363   1.00
H2       0.67234    0.50570    0.42825   1.00
C5       0.66371    0.54068    0.37639   1.00
H2       0.63363    0.52962    0.37087   1.00
H2       0.67802    0.54471    0.34746   1.00
C5       0.66238    0.57947    0.39900   1.00
H2       0.69232    0.59055    0.40486   1.00
H2       0.64689    0.57578    0.42730   1.00
C5       0.64055    0.61053    0.37498   1.00
C5       0.65395    0.43174    0.50463   1.00
C5       0.55430    0.39437    0.32509   1.00
H2       0.67412    0.40817    0.49508   1.00
H2       0.62788    0.41813    0.51860   1.00
H2       0.58200    0.40453    0.31132   1.00
H2       0.53605    0.42079    0.33102   1.00
H2       0.47470    0.39139    0.28562   1.00
H2       0.72253    0.41739    0.55156   1.00
H2       0.67737    0.41051    0.57853   1.00
C2       0.76895    0.41764    0.41547   1.00
C3       0.74903    0.38615    0.43304   1.00
O2       0.76826    0.36153    0.45843   1.00
C3       0.74674    0.44677    0.39642   1.00
H1       0.76115    0.47072    0.38182   1.00
C3a      0.70787    0.38498    0.43211   1.00
H1       0.69298    0.36188    0.44761   1.00
C3b      0.70578    0.44618    0.39662   1.00
C4       0.68600    0.41518    0.41462   1.00
O3       0.64333    0.45599    0.47310   1.00
C5       0.77780    0.32621    0.43954   1.00
H2       0.75109    0.31101    0.42870   1.00
C5       0.79826    0.30051    0.46954   1.00
H2       0.79774    0.33147    0.41439   1.00
H2       0.77568    0.28691    0.48854   1.00
H2       0.81593    0.32000    0.48863   1.00
C5       0.82418    0.26896    0.45080   1.00
H2       0.80676    0.25176    0.42953   1.00
C5       0.84047    0.24109    0.48204   1.00
H2       0.84993    0.28214    0.43569   1.00
C5       0.67483    0.45712    0.53461   1.00
H2       0.65285    0.47625    0.54901   1.00
H2       0.69548    0.47664    0.51881   1.00
C5       0.69700    0.43254    0.56498   1.00
C5       0.71275    0.45908    0.59762   1.00
H2       0.47214    0.33590    0.24482   1.00
C5       0.47588    0.38385    0.20230   1.00
H2       0.52177    0.34497    0.22473   1.00
C5       0.63163    0.64605    0.40100   1.00
H2       0.65949    0.62005    0.34935   1.00
H2       0.61207    0.59772    0.36356   1.00
C5       0.86003    0.20595    0.46203   1.00
H2       0.86289    0.25715    0.50063   1.00
H2       0.81563    0.23041    0.50141   1.00
H2       0.72898    0.48479    0.58414   1.00
H2       0.68739    0.47036    0.61594   1.00
C5       0.74083    0.43566    0.62372   1.00
H2       0.46384    0.41223    0.21475   1.00
H2       0.49929    0.39070    0.17970   1.00
H2       0.45126    0.36672    0.18792   1.00
H2       0.64680    0.64237    0.43037   1.00
H2       0.64271    0.67370    0.38620   1.00
H2       0.59879    0.64839    0.40570   1.00
H2       0.87611    0.21624    0.43480   1.00
H2       0.88164    0.19186    0.48301   1.00
H2       0.83681    0.18373    0.45346   1.00
H2       0.77193    0.43913    0.61246   1.00
H2       0.73902    0.44700    0.65493   1.00
H2       0.73234    0.40352    0.62309   1.00
C5       1.29718    0.36652    0.53215   1.00
H2       1.31245    0.34554    0.51276   1.00
H2       1.27590    0.34897    0.54918   1.00
C5       1.32694    0.38600    0.55959   1.00
C5       1.33623    0.35936    0.59455   1.00
H2       1.31515    0.41419    0.57059   1.00
O3       1.14500    0.47485    0.45286   1.00
C4       1.18600    0.41482    0.41462   1.00
C3c      1.20743    0.39557    0.44377   1.00
H1       1.19225    0.38024    0.46678   1.00
C3d      1.20635    0.43414    0.38459   1.00
C3       1.24854    0.39621    0.44408   1.00
O2       1.26748    0.37284    0.47068   1.00
C3       1.24727    0.43547    0.38522   1.00
H1       1.26157    0.45181    0.36235   1.00
C2       1.26939    0.41652    0.41472   1.00
C5       1.14379    0.50972    0.43094   1.00
H2       1.11338    0.52032    0.42637   1.00
H2       1.15766    0.50570    0.40175   1.00
C5       1.16629    0.54068    0.45361   1.00
H2       1.19637    0.52962    0.45913   1.00
H2       1.15198    0.54471    0.48254   1.00
C5       1.16762    0.57947    0.43100   1.00
H2       1.13768    0.59055    0.42514   1.00
H2       1.18311    0.57578    0.40270   1.00
C5       1.18945    0.61053    0.45502   1.00
C5       1.17605    0.43174    0.32537   1.00
C5       1.27570    0.39437    0.50491   1.00
H2       1.15588    0.40817    0.33492   1.00
H2       1.20212    0.41813    0.31140   1.00
H2       1.24800    0.40453    0.51868   1.00
H2       1.29395    0.42079    0.49898   1.00
H2       1.35530    0.39139    0.54438   1.00
H2       1.10747    0.41739    0.27844   1.00
H2       1.15263    0.41051    0.25147   1.00
C2       1.06105    0.41764    0.41453   1.00
C3       1.08097    0.38615    0.39696   1.00
O2       1.06174    0.36153    0.37157   1.00
C3       1.08326    0.44677    0.43358   1.00
H1       1.06885    0.47072    0.44818   1.00
C3a      1.12213    0.38498    0.39789   1.00
H1       1.13702    0.36188    0.38239   1.00
C3b      1.12422    0.44618    0.43338   1.00
C4       1.14400    0.41518    0.41538   1.00
O3       1.18667    0.45599    0.35690   1.00
C5       1.05220    0.32621    0.39046   1.00
H2       1.07891    0.31101    0.40130   1.00
C5       1.03174    0.30051    0.36046   1.00
H2       1.03226    0.33147    0.41561   1.00
H2       1.05432    0.28691    0.34146   1.00
H2       1.01407    0.32000    0.34137   1.00
C5       1.00582    0.26896    0.37920   1.00
H2       1.02324    0.25176    0.40047   1.00
C5       0.98953    0.24109    0.34796   1.00
H2       0.98007    0.28214    0.39431   1.00
C5       1.15517    0.45712    0.29539   1.00
H2       1.17715    0.47625    0.28099   1.00
H2       1.13452    0.47664    0.31119   1.00
C5       1.13300    0.43254    0.26502   1.00
C5       1.11725    0.45908    0.23238   1.00
H2       1.35786    0.33590    0.58518   1.00
C5       1.35412    0.38385    0.62770   1.00
H2       1.30823    0.34497    0.60527   1.00
C5       1.19837    0.64605    0.42900   1.00
H2       1.17051    0.62005    0.48065   1.00
H2       1.21793    0.59772    0.46644   1.00
C5       0.96997    0.20595    0.36797   1.00
H2       0.96711    0.25715    0.32937   1.00
H2       1.01437    0.23041    0.32859   1.00
H2       1.10102    0.48479    0.24586   1.00
H2       1.14261    0.47036    0.21406   1.00
C5       1.08917    0.43566    0.20628   1.00
H2       1.36616    0.41223    0.61525   1.00
H2       1.33071    0.39070    0.65030   1.00
H2       1.37874    0.36672    0.64208   1.00
H2       1.18320    0.64237    0.39963   1.00
H2       1.18729    0.67370    0.44380   1.00
H2       1.23121    0.64839    0.42430   1.00
H2       0.95389    0.21624    0.39520   1.00
H2       0.94836    0.19186    0.34699   1.00
H2       0.99319    0.18373    0.37654   1.00
H2       1.05807    0.43913    0.21754   1.00
H2       1.09098    0.44700    0.17507   1.00
H2       1.09766    0.40352    0.20691   1.00
C5       0.79785    0.03282    0.36652   1.00
H2       0.81724    0.01755    0.34554   1.00
H2       0.78082    0.05410    0.34897   1.00
C5       0.77041    0.00306    0.38600   1.00
C5       0.73545    -0.00623   0.35936   1.00
H2       0.75941    0.01485    0.41419   1.00
O3       0.87714    0.18500    0.47485   1.00
C4       0.91538    0.14400    0.41482   1.00
C3c      0.88623    0.12257    0.39557   1.00
H1       0.86322    0.13775    0.38024   1.00
C3d      0.94541    0.12365    0.43414   1.00
C3       0.88592    0.08146    0.39621   1.00
O2       0.85932    0.06252    0.37284   1.00
C3       0.94478    0.08273    0.43547   1.00
H1       0.96765    0.06843    0.45181   1.00
C2       0.91528    0.06061    0.41652   1.00
C5       0.89906    0.18621    0.50972   1.00
H2       0.90363    0.21662    0.52032   1.00
H2       0.92825    0.17234    0.50570   1.00
C5       0.87639    0.16371    0.54068   1.00
H2       0.87087    0.13363    0.52962   1.00
H2       0.84746    0.17802    0.54471   1.00
C5       0.89900    0.16238    0.57947   1.00
H2       0.90486    0.19232    0.59055   1.00
H2       0.92730    0.14689    0.57578   1.00
C5       0.87498    0.14055    0.61053   1.00
C5       1.00463    0.15395    0.43174   1.00
C5       0.82509    0.05430    0.39437   1.00
H2       0.99508    0.17412    0.40817   1.00
H2       1.01860    0.12788    0.41813   1.00
H2       0.81132    0.08200    0.40453   1.00
H2       0.83102    0.03605    0.42079   1.00
H2       0.78562    -0.02530   0.39139   1.00
H2       1.05156    0.22253    0.41739   1.00
H2       1.07853    0.17737    0.41051   1.00
C2       0.91547    0.26895    0.41764   1.00
C3       0.93304    0.24903    0.38615   1.00
O2       0.95843    0.26826    0.36153   1.00
C3       0.89642    0.24674    0.44677   1.00
H1       0.88182    0.26115    0.47072   1.00
C3a      0.93211    0.20787    0.38498   1.00
H1       0.94761    0.19298    0.36188   1.00
C3b      0.89662    0.20578    0.44618   1.00
C4       0.91462    0.18600    0.41518   1.00
O3       0.97310    0.14333    0.45599   1.00
C5       0.93954    0.27780    0.32621   1.00
H2       0.92870    0.25109    0.31101   1.00
C5       0.96954    0.29826    0.30051   1.00
H2       0.91439    0.29774    0.33147   1.00
H2       0.98854    0.27568    0.28691   1.00
H2       0.98863    0.31593    0.32000   1.00
C5       0.95080    0.32418    0.26896   1.00
H2       0.92953    0.30676    0.25176   1.00
C5       0.98204    0.34047    0.24109   1.00
H2       0.93569    0.34993    0.28214   1.00
C5       1.03461    0.17483    0.45712   1.00
H2       1.04901    0.15285    0.47625   1.00
H2       1.01881    0.19548    0.47664   1.00
C5       1.06498    0.19700    0.43254   1.00
C5       1.09762    0.21275    0.45908   1.00
H2       0.74482    -0.02786   0.33590   1.00
C5       0.70230    -0.02412   0.38385   1.00
H2       0.72473    0.02177    0.34497   1.00
C5       0.90100    0.13163    0.64605   1.00
H2       0.84935    0.15949    0.62005   1.00
H2       0.86356    0.11207    0.59772   1.00
C5       0.96203    0.36003    0.20595   1.00
H2       1.00063    0.36289    0.25715   1.00
H2       1.00141    0.31563    0.23041   1.00
H2       1.08414    0.22898    0.48479   1.00
H2       1.11594    0.18739    0.47036   1.00
C5       1.12372    0.24083    0.43566   1.00
H2       0.71475    -0.03616   0.41223   1.00
H2       0.67970    -0.00071   0.39070   1.00
H2       0.68792    -0.04874   0.36672   1.00
H2       0.93037    0.14680    0.64237   1.00
H2       0.88620    0.14271    0.67370   1.00
H2       0.90570    0.09879    0.64839   1.00
H2       0.93480    0.37611    0.21624   1.00
H2       0.98301    0.38164    0.19186   1.00
H2       0.95346    0.33681    0.18373   1.00
H2       1.11246    0.27193    0.43913   1.00
H2       1.15493    0.23902    0.44700   1.00
H2       1.12309    0.23234    0.40352   1.00
C5       0.86652    0.29785    0.03282   1.00
H2       0.84554    0.31724    0.01755   1.00
H2       0.84897    0.28082    0.05410   1.00
C5       0.88600    0.27041    0.00306   1.00
C5       0.85936    0.23545    -0.00623   1.00
H2       0.91419    0.25941    0.01485   1.00
O3       0.97485    0.37714    0.18500   1.00
C4       0.91482    0.41538    0.14400   1.00
C3c      0.89557    0.38623    0.12257   1.00
H1       0.88024    0.36322    0.13775   1.00
C3d      0.93414    0.44541    0.12365   1.00
C3       0.89621    0.38592    0.08146   1.00
O2       0.87284    0.35932    0.06252   1.00
C3       0.93547    0.44478    0.08273   1.00
H1       0.95181    0.46765    0.06843   1.00
C2       0.91652    0.41528    0.06061   1.00
C5       1.00972    0.39906    0.18621   1.00
H2       1.02032    0.40363    0.21662   1.00
H2       1.00570    0.42825    0.17234   1.00
C5       1.04068    0.37639    0.16371   1.00
H2       1.02962    0.37087    0.13363   1.00
H2       1.04471    0.34746    0.17802   1.00
C5       1.07947    0.39900    0.16238   1.00
H2       1.09055    0.40486    0.19232   1.00
H2       1.07578    0.42730    0.14689   1.00
C5       1.11053    0.37498    0.14055   1.00
C5       0.93174    0.50463    0.15395   1.00
C5       0.89437    0.32509    0.05430   1.00
H2       0.90817    0.49508    0.17412   1.00
H2       0.91813    0.51860    0.12788   1.00
H2       0.90453    0.31132    0.08200   1.00
H2       0.92079    0.33102    0.03605   1.00
H2       0.89139    0.28562    -0.02530   1.00
H2       0.91739    0.55156    0.22253   1.00
H2       0.91051    0.57853    0.17737   1.00
C2       0.91764    0.41547    0.26895   1.00
C3       0.88615    0.43304    0.24903   1.00
O2       0.86153    0.45843    0.26826   1.00
C3       0.94677    0.39642    0.24674   1.00
H1       0.97072    0.38182    0.26115   1.00
C3a      0.88498    0.43211    0.20787   1.00
H1       0.86188    0.44761    0.19298   1.00
C3b      0.94618    0.39662    0.20578   1.00
C4       0.91518    0.41462    0.18600   1.00
O3       0.95599    0.47310    0.14333   1.00
C5       0.82621    0.43954    0.27780   1.00
H2       0.81101    0.42870    0.25109   1.00
C5       0.80051    0.46954    0.29826   1.00
H2       0.83147    0.41439    0.29774   1.00
H2       0.78691    0.48854    0.27568   1.00
H2       0.82000    0.48863    0.31593   1.00
C5       0.76896    0.45080    0.32418   1.00
H2       0.75176    0.42953    0.30676   1.00
C5       0.74109    0.48204    0.34047   1.00
H2       0.78214    0.43569    0.34993   1.00
C5       0.95712    0.53461    0.17483   1.00
H2       0.97625    0.54901    0.15285   1.00
H2       0.97664    0.51881    0.19548   1.00
C5       0.93254    0.56498    0.19700   1.00
C5       0.95908    0.59762    0.21275   1.00
H2       0.83590    0.24482    -0.02786   1.00
C5       0.88385    0.20230    -0.02412   1.00
H2       0.84497    0.22473    0.02177   1.00
C5       1.14605    0.40100    0.13163   1.00
H2       1.12005    0.34935    0.15949   1.00
H2       1.09772    0.36356    0.11207   1.00
C5       0.70595    0.46203    0.36003   1.00
H2       0.75715    0.50063    0.36289   1.00
H2       0.73041    0.50141    0.31563   1.00
H2       0.98479    0.58414    0.22898   1.00
H2       0.97036    0.61594    0.18739   1.00
C5       0.93566    0.62372    0.24083   1.00
H2       0.91223    0.21475    -0.03616   1.00
H2       0.89070    0.17970    -0.00071   1.00
H2       0.86672    0.18792    -0.04874   1.00
H2       1.14237    0.43037    0.14680   1.00
H2       1.17370    0.38620    0.14271   1.00
H2       1.14839    0.40570    0.09879   1.00
H2       0.71624    0.43480    0.37611   1.00
H2       0.69186    0.48301    0.38164   1.00
H2       0.68373    0.45346    0.33681   1.00
H2       0.93913    0.61246    0.27193   1.00
H2       0.94700    0.65493    0.23902   1.00
H2       0.90352    0.62309    0.23234   1.00
