data_IRMOF10_SG202_interpen_Ligand10cp_label_r.

_audit_creation_method             'generated by an auxiliary program of Tobunporous'

_symmetry_space_group_name_H-M     'P 1'
_symmetry_Int_Tables_number        1
_symmetry_cell_setting             triclinic

_cell_length_a                    34.2800
_cell_length_b                    34.2800
_cell_length_c                    34.2800
_cell_angle_alpha                 90.0000
_cell_angle_beta                  90.0000
_cell_angle_gamma                 90.0000

loop_
_atom_site_label
_atom_site_fract_x
_atom_site_fract_y
_atom_site_fract_z
_atom_site_occupancy
O1       0.75000    0.75000    0.75000   1.00
Zn1      0.71720    0.78280    0.78280   1.00
Zn1      0.78280    0.71720    0.78280   1.00
Zn1      0.78280    0.78280    0.71720   1.00
Zn1      0.71720    0.71720    0.71720   1.00
O2       0.72650    0.77350    0.83820   1.00
O2       0.72650    0.83820    0.77350   1.00
O2       0.66180    0.77350    0.77350   1.00
O2       0.77350    0.72650    0.83820   1.00
O2       0.83820    0.72650    0.77350   1.00
O2       0.77350    0.66180    0.77350   1.00
O2       0.77350    0.83820    0.72650   1.00
O2       0.83820    0.77350    0.72650   1.00
O2       0.77350    0.77350    0.66180   1.00
O2       0.66180    0.72650    0.72650   1.00
O2       0.72650    0.66180    0.72650   1.00
O2       0.72650    0.72650    0.66180   1.00
C1       0.75000    0.75000    0.85520   1.00
C1       0.75000    0.85520    0.75000   1.00
C1       0.64480    0.75000    0.75000   1.00
C1       0.85520    0.75000    0.75000   1.00
C1       0.75000    0.64480    0.75000   1.00
C1       0.75000    0.75000    0.64480   1.00
O1       0.25000    0.25000    0.75000   1.00
Zn1      0.21720    0.28280    0.78280   1.00
Zn1      0.28280    0.21720    0.78280   1.00
Zn1      0.28280    0.28280    0.71720   1.00
Zn1      0.21720    0.21720    0.71720   1.00
O2       0.22650    0.27350    0.83820   1.00
O2       0.22650    0.33820    0.77350   1.00
O2       0.16180    0.27350    0.77350   1.00
O2       0.27350    0.22650    0.83820   1.00
O2       0.33820    0.22650    0.77350   1.00
O2       0.27350    0.16180    0.77350   1.00
O2       0.27350    0.33820    0.72650   1.00
O2       0.33820    0.27350    0.72650   1.00
O2       0.27350    0.27350    0.66180   1.00
O2       0.16180    0.22650    0.72650   1.00
O2       0.22650    0.16180    0.72650   1.00
O2       0.22650    0.22650    0.66180   1.00
C1       0.25000    0.25000    0.85520   1.00
C1       0.25000    0.35520    0.75000   1.00
C1       0.14480    0.25000    0.75000   1.00
C1       0.35520    0.25000    0.75000   1.00
C1       0.25000    0.14480    0.75000   1.00
C1       0.25000    0.25000    0.64480   1.00
O1       0.25000    0.75000    0.25000   1.00
Zn1      0.21720    0.78280    0.28280   1.00
Zn1      0.28280    0.71720    0.28280   1.00
Zn1      0.28280    0.78280    0.21720   1.00
Zn1      0.21720    0.71720    0.21720   1.00
O2       0.22650    0.77350    0.33820   1.00
O2       0.22650    0.83820    0.27350   1.00
O2       0.16180    0.77350    0.27350   1.00
O2       0.27350    0.72650    0.33820   1.00
O2       0.33820    0.72650    0.27350   1.00
O2       0.27350    0.66180    0.27350   1.00
O2       0.27350    0.83820    0.22650   1.00
O2       0.33820    0.77350    0.22650   1.00
O2       0.27350    0.77350    0.16180   1.00
O2       0.16180    0.72650    0.22650   1.00
O2       0.22650    0.66180    0.22650   1.00
O2       0.22650    0.72650    0.16180   1.00
C1       0.25000    0.75000    0.35520   1.00
C1       0.25000    0.85520    0.25000   1.00
C1       0.14480    0.75000    0.25000   1.00
C1       0.35520    0.75000    0.25000   1.00
C1       0.25000    0.64480    0.25000   1.00
C1       0.25000    0.75000    0.14480   1.00
O1       0.75000    0.25000    0.25000   1.00
Zn1      0.71720    0.28280    0.28280   1.00
Zn1      0.78280    0.21720    0.28280   1.00
Zn1      0.78280    0.28280    0.21720   1.00
Zn1      0.71720    0.21720    0.21720   1.00
O2       0.72650    0.27350    0.33820   1.00
O2       0.72650    0.33820    0.27350   1.00
O2       0.66180    0.27350    0.27350   1.00
O2       0.77350    0.22650    0.33820   1.00
O2       0.83820    0.22650    0.27350   1.00
O2       0.77350    0.16180    0.27350   1.00
O2       0.77350    0.33820    0.22650   1.00
O2       0.83820    0.27350    0.22650   1.00
O2       0.77350    0.27350    0.16180   1.00
O2       0.66180    0.22650    0.22650   1.00
O2       0.72650    0.16180    0.22650   1.00
O2       0.72650    0.22650    0.16180   1.00
C1       0.75000    0.25000    0.35520   1.00
C1       0.75000    0.35520    0.25000   1.00
C1       0.64480    0.25000    0.25000   1.00
C1       0.85520    0.25000    0.25000   1.00
C1       0.75000    0.14480    0.25000   1.00
C1       0.75000    0.25000    0.14480   1.00
O1       0.25000    0.25000    0.25000   1.00
Zn1      0.28280    0.21720    0.21720   1.00
Zn1      0.21720    0.28280    0.21720   1.00
Zn1      0.21720    0.21720    0.28280   1.00
Zn1      0.28280    0.28280    0.28280   1.00
O2       0.27350    0.22650    0.16180   1.00
O2       0.27350    0.16180    0.22650   1.00
O2       0.33820    0.22650    0.22650   1.00
O2       0.22650    0.27350    0.16180   1.00
O2       0.16180    0.27350    0.22650   1.00
O2       0.22650    0.33820    0.22650   1.00
O2       0.22650    0.16180    0.27350   1.00
O2       0.16180    0.22650    0.27350   1.00
O2       0.22650    0.22650    0.33820   1.00
O2       0.33820    0.27350    0.27350   1.00
O2       0.27350    0.33820    0.27350   1.00
O2       0.27350    0.27350    0.33820   1.00
C1       0.25000    0.25000    0.14480   1.00
C1       0.25000    0.14480    0.25000   1.00
C1       0.35520    0.25000    0.25000   1.00
C1       0.14480    0.25000    0.25000   1.00
C1       0.25000    0.35520    0.25000   1.00
C1       0.25000    0.25000    0.35520   1.00
O1       0.75000    0.75000    0.25000   1.00
Zn1      0.78280    0.71720    0.21720   1.00
Zn1      0.71720    0.78280    0.21720   1.00
Zn1      0.71720    0.71720    0.28280   1.00
Zn1      0.78280    0.78280    0.28280   1.00
O2       0.77350    0.72650    0.16180   1.00
O2       0.77350    0.66180    0.22650   1.00
O2       0.83820    0.72650    0.22650   1.00
O2       0.72650    0.77350    0.16180   1.00
O2       0.66180    0.77350    0.22650   1.00
O2       0.72650    0.83820    0.22650   1.00
O2       0.72650    0.66180    0.27350   1.00
O2       0.66180    0.72650    0.27350   1.00
O2       0.72650    0.72650    0.33820   1.00
O2       0.83820    0.77350    0.27350   1.00
O2       0.77350    0.83820    0.27350   1.00
O2       0.77350    0.77350    0.33820   1.00
C1       0.75000    0.75000    0.14480   1.00
C1       0.75000    0.64480    0.25000   1.00
C1       0.85520    0.75000    0.25000   1.00
C1       0.64480    0.75000    0.25000   1.00
C1       0.75000    0.85520    0.25000   1.00
C1       0.75000    0.75000    0.35520   1.00
O1       0.75000    0.25000    0.75000   1.00
Zn1      0.78280    0.21720    0.71720   1.00
Zn1      0.71720    0.28280    0.71720   1.00
Zn1      0.71720    0.21720    0.78280   1.00
Zn1      0.78280    0.28280    0.78280   1.00
O2       0.77350    0.22650    0.66180   1.00
O2       0.77350    0.16180    0.72650   1.00
O2       0.83820    0.22650    0.72650   1.00
O2       0.72650    0.27350    0.66180   1.00
O2       0.66180    0.27350    0.72650   1.00
O2       0.72650    0.33820    0.72650   1.00
O2       0.72650    0.16180    0.77350   1.00
O2       0.66180    0.22650    0.77350   1.00
O2       0.72650    0.22650    0.83820   1.00
O2       0.83820    0.27350    0.77350   1.00
O2       0.77350    0.33820    0.77350   1.00
O2       0.77350    0.27350    0.83820   1.00
C1       0.75000    0.25000    0.64480   1.00
C1       0.75000    0.14480    0.75000   1.00
C1       0.85520    0.25000    0.75000   1.00
C1       0.64480    0.25000    0.75000   1.00
C1       0.75000    0.35520    0.75000   1.00
C1       0.75000    0.25000    0.85520   1.00
O1       0.25000    0.75000    0.75000   1.00
Zn1      0.28280    0.71720    0.71720   1.00
Zn1      0.21720    0.78280    0.71720   1.00
Zn1      0.21720    0.71720    0.78280   1.00
Zn1      0.28280    0.78280    0.78280   1.00
O2       0.27350    0.72650    0.66180   1.00
O2       0.27350    0.66180    0.72650   1.00
O2       0.33820    0.72650    0.72650   1.00
O2       0.22650    0.77350    0.66180   1.00
O2       0.16180    0.77350    0.72650   1.00
O2       0.22650    0.83820    0.72650   1.00
O2       0.22650    0.66180    0.77350   1.00
O2       0.16180    0.72650    0.77350   1.00
O2       0.22650    0.72650    0.83820   1.00
O2       0.33820    0.77350    0.77350   1.00
O2       0.27350    0.83820    0.77350   1.00
O2       0.27350    0.77350    0.83820   1.00
C1       0.25000    0.75000    0.64480   1.00
C1       0.25000    0.64480    0.75000   1.00
C1       0.35520    0.75000    0.75000   1.00
C1       0.14480    0.75000    0.75000   1.00
C1       0.25000    0.85520    0.75000   1.00
C1       0.25000    0.75000    0.85520   1.00
O1       0.91500    0.91500    0.91500   1.00
Zn1      0.88220    0.94780    0.94780   1.00
Zn1      0.94780    0.88220    0.94780   1.00
Zn1      0.94780    0.94780    0.88220   1.00
Zn1      0.88220    0.88220    0.88220   1.00
O2       0.89150    0.93850    1.00320   1.00
O2       0.89150    1.00320    0.93850   1.00
O2       0.82680    0.93850    0.93850   1.00
O2       0.93850    0.89150    1.00320   1.00
O2       1.00320    0.89150    0.93850   1.00
O2       0.93850    0.82680    0.93850   1.00
O2       0.93850    1.00320    0.89150   1.00
O2       1.00320    0.93850    0.89150   1.00
O2       0.93850    0.93850    0.82680   1.00
O2       0.82680    0.89150    0.89150   1.00
O2       0.89150    0.82680    0.89150   1.00
O2       0.89150    0.89150    0.82680   1.00
C1       0.91500    0.91500    1.02020   1.00
C1       0.91500    1.02020    0.91500   1.00
C1       0.80980    0.91500    0.91500   1.00
C1       1.02020    0.91500    0.91500   1.00
C1       0.91500    0.80980    0.91500   1.00
C1       0.91500    0.91500    0.80980   1.00
O1       0.41500    0.41500    0.91500   1.00
Zn1      0.38220    0.44780    0.94780   1.00
Zn1      0.44780    0.38220    0.94780   1.00
Zn1      0.44780    0.44780    0.88220   1.00
Zn1      0.38220    0.38220    0.88220   1.00
O2       0.39150    0.43850    1.00320   1.00
O2       0.39150    0.50320    0.93850   1.00
O2       0.32680    0.43850    0.93850   1.00
O2       0.43850    0.39150    1.00320   1.00
O2       0.50320    0.39150    0.93850   1.00
O2       0.43850    0.32680    0.93850   1.00
O2       0.43850    0.50320    0.89150   1.00
O2       0.50320    0.43850    0.89150   1.00
O2       0.43850    0.43850    0.82680   1.00
O2       0.32680    0.39150    0.89150   1.00
O2       0.39150    0.32680    0.89150   1.00
O2       0.39150    0.39150    0.82680   1.00
C1       0.41500    0.41500    1.02020   1.00
C1       0.41500    0.52020    0.91500   1.00
C1       0.30980    0.41500    0.91500   1.00
C1       0.52020    0.41500    0.91500   1.00
C1       0.41500    0.30980    0.91500   1.00
C1       0.41500    0.41500    0.80980   1.00
O1       0.41500    0.91500    0.41500   1.00
Zn1      0.38220    0.94780    0.44780   1.00
Zn1      0.44780    0.88220    0.44780   1.00
Zn1      0.44780    0.94780    0.38220   1.00
Zn1      0.38220    0.88220    0.38220   1.00
O2       0.39150    0.93850    0.50320   1.00
O2       0.39150    1.00320    0.43850   1.00
O2       0.32680    0.93850    0.43850   1.00
O2       0.43850    0.89150    0.50320   1.00
O2       0.50320    0.89150    0.43850   1.00
O2       0.43850    0.82680    0.43850   1.00
O2       0.43850    1.00320    0.39150   1.00
O2       0.50320    0.93850    0.39150   1.00
O2       0.43850    0.93850    0.32680   1.00
O2       0.32680    0.89150    0.39150   1.00
O2       0.39150    0.82680    0.39150   1.00
O2       0.39150    0.89150    0.32680   1.00
C1       0.41500    0.91500    0.52020   1.00
C1       0.41500    1.02020    0.41500   1.00
C1       0.30980    0.91500    0.41500   1.00
C1       0.52020    0.91500    0.41500   1.00
C1       0.41500    0.80980    0.41500   1.00
C1       0.41500    0.91500    0.30980   1.00
O1       0.91500    0.41500    0.41500   1.00
Zn1      0.88220    0.44780    0.44780   1.00
Zn1      0.94780    0.38220    0.44780   1.00
Zn1      0.94780    0.44780    0.38220   1.00
Zn1      0.88220    0.38220    0.38220   1.00
O2       0.89150    0.43850    0.50320   1.00
O2       0.89150    0.50320    0.43850   1.00
O2       0.82680    0.43850    0.43850   1.00
O2       0.93850    0.39150    0.50320   1.00
O2       1.00320    0.39150    0.43850   1.00
O2       0.93850    0.32680    0.43850   1.00
O2       0.93850    0.50320    0.39150   1.00
O2       1.00320    0.43850    0.39150   1.00
O2       0.93850    0.43850    0.32680   1.00
O2       0.82680    0.39150    0.39150   1.00
O2       0.89150    0.32680    0.39150   1.00
O2       0.89150    0.39150    0.32680   1.00
C1       0.91500    0.41500    0.52020   1.00
C1       0.91500    0.52020    0.41500   1.00
C1       0.80980    0.41500    0.41500   1.00
C1       1.02020    0.41500    0.41500   1.00
C1       0.91500    0.30980    0.41500   1.00
C1       0.91500    0.41500    0.30980   1.00
O1       0.41500    0.41500    0.41500   1.00
Zn1      0.44780    0.38220    0.38220   1.00
Zn1      0.38220    0.44780    0.38220   1.00
Zn1      0.38220    0.38220    0.44780   1.00
Zn1      0.44780    0.44780    0.44780   1.00
O2       0.43850    0.39150    0.32680   1.00
O2       0.43850    0.32680    0.39150   1.00
O2       0.50320    0.39150    0.39150   1.00
O2       0.39150    0.43850    0.32680   1.00
O2       0.32680    0.43850    0.39150   1.00
O2       0.39150    0.50320    0.39150   1.00
O2       0.39150    0.32680    0.43850   1.00
O2       0.32680    0.39150    0.43850   1.00
O2       0.39150    0.39150    0.50320   1.00
O2       0.50320    0.43850    0.43850   1.00
O2       0.43850    0.50320    0.43850   1.00
O2       0.43850    0.43850    0.50320   1.00
C1       0.41500    0.41500    0.30980   1.00
C1       0.41500    0.30980    0.41500   1.00
C1       0.52020    0.41500    0.41500   1.00
C1       0.30980    0.41500    0.41500   1.00
C1       0.41500    0.52020    0.41500   1.00
C1       0.41500    0.41500    0.52020   1.00
O1       0.91500    0.91500    0.41500   1.00
Zn1      0.94780    0.88220    0.38220   1.00
Zn1      0.88220    0.94780    0.38220   1.00
Zn1      0.88220    0.88220    0.44780   1.00
Zn1      0.94780    0.94780    0.44780   1.00
O2       0.93850    0.89150    0.32680   1.00
O2       0.93850    0.82680    0.39150   1.00
O2       1.00320    0.89150    0.39150   1.00
O2       0.89150    0.93850    0.32680   1.00
O2       0.82680    0.93850    0.39150   1.00
O2       0.89150    1.00320    0.39150   1.00
O2       0.89150    0.82680    0.43850   1.00
O2       0.82680    0.89150    0.43850   1.00
O2       0.89150    0.89150    0.50320   1.00
O2       1.00320    0.93850    0.43850   1.00
O2       0.93850    1.00320    0.43850   1.00
O2       0.93850    0.93850    0.50320   1.00
C1       0.91500    0.91500    0.30980   1.00
C1       0.91500    0.80980    0.41500   1.00
C1       1.02020    0.91500    0.41500   1.00
C1       0.80980    0.91500    0.41500   1.00
C1       0.91500    1.02020    0.41500   1.00
C1       0.91500    0.91500    0.52020   1.00
O1       0.91500    0.41500    0.91500   1.00
Zn1      0.94780    0.38220    0.88220   1.00
Zn1      0.88220    0.44780    0.88220   1.00
Zn1      0.88220    0.38220    0.94780   1.00
Zn1      0.94780    0.44780    0.94780   1.00
O2       0.93850    0.39150    0.82680   1.00
O2       0.93850    0.32680    0.89150   1.00
O2       1.00320    0.39150    0.89150   1.00
O2       0.89150    0.43850    0.82680   1.00
O2       0.82680    0.43850    0.89150   1.00
O2       0.89150    0.50320    0.89150   1.00
O2       0.89150    0.32680    0.93850   1.00
O2       0.82680    0.39150    0.93850   1.00
O2       0.89150    0.39150    1.00320   1.00
O2       1.00320    0.43850    0.93850   1.00
O2       0.93850    0.50320    0.93850   1.00
O2       0.93850    0.43850    1.00320   1.00
C1       0.91500    0.41500    0.80980   1.00
C1       0.91500    0.30980    0.91500   1.00
C1       1.02020    0.41500    0.91500   1.00
C1       0.80980    0.41500    0.91500   1.00
C1       0.91500    0.52020    0.91500   1.00
C1       0.91500    0.41500    1.02020   1.00
O1       0.41500    0.91500    0.91500   1.00
Zn1      0.44780    0.88220    0.88220   1.00
Zn1      0.38220    0.94780    0.88220   1.00
Zn1      0.38220    0.88220    0.94780   1.00
Zn1      0.44780    0.94780    0.94780   1.00
O2       0.43850    0.89150    0.82680   1.00
O2       0.43850    0.82680    0.89150   1.00
O2       0.50320    0.89150    0.89150   1.00
O2       0.39150    0.93850    0.82680   1.00
O2       0.32680    0.93850    0.89150   1.00
O2       0.39150    1.00320    0.89150   1.00
O2       0.39150    0.82680    0.93850   1.00
O2       0.32680    0.89150    0.93850   1.00
O2       0.39150    0.89150    1.00320   1.00
O2       0.50320    0.93850    0.93850   1.00
O2       0.43850    1.00320    0.93850   1.00
O2       0.43850    0.93850    1.00320   1.00
C1       0.41500    0.91500    0.80980   1.00
C1       0.41500    0.80980    0.91500   1.00
C1       0.52020    0.91500    0.91500   1.00
C1       0.30980    0.91500    0.91500   1.00
C1       0.41500    1.02020    0.91500   1.00
C1       0.41500    0.91500    1.02020   1.00
C4       0.74984    0.74965    0.97915   1.00
C4       0.75016    0.75035    1.02085   1.00
C3       0.71470    0.75150    0.95751   1.00
C3       0.72479    0.77465    1.04252   1.00
C3       0.78491    0.74793    0.95738   1.00
C3       0.77542    0.72596    1.04259   1.00
C2       0.74985    0.75007    0.89482   1.00
C2       0.74985    0.75007    1.10518   1.00
C3a      0.71455    0.75170    0.91599   1.00
C3       0.72471    0.77447    1.08382   1.00
C3       0.78484    0.74814    0.91611   1.00
C3a      0.77543    0.72569    1.08403   1.00
H1       0.68717    0.75248    0.97294   1.00
H1       0.70508    0.79425    1.02750   1.00
C5       0.67654    0.75350    0.89410   1.00
H1       0.70487    0.79355    1.09933   1.00
H1       0.81232    0.74709    0.90056   1.00
C5       0.80310    0.69905    1.10535   1.00
H1       0.79464    0.70598    1.02747   1.00
H1       0.81274    0.74720    0.97230   1.00
H2       0.83349    0.70797    1.09837   1.00
H2       0.79948    0.70175    1.13747   1.00
N1       0.79657    0.65844    1.09395   1.00
C6       0.80170    0.64321    1.05810   1.00
C6       0.78470    0.62936    1.11757   1.00
C6       0.79282    0.60396    1.05873   1.00
C6       0.78200    0.59516    1.09656   1.00
H3       0.81135    0.65952    1.03281   1.00
H3       0.77821    0.63276    1.14831   1.00
H3       0.79414    0.58397    1.03436   1.00
H3       0.77317    0.56696    1.10758   1.00
H2       0.68276    0.75396    0.86228   1.00
H2       0.65837    0.72732    0.90001   1.00
N1       0.65469    0.78832    0.90523   1.00
C6       0.64315    0.81969    0.88078   1.00
C6       0.64022    0.79790    0.94285   1.00
C6       0.62287    0.84668    0.90277   1.00
C6       0.62109    0.83330    0.94091   1.00
H3       0.64947    0.82189    0.84992   1.00
H3       0.64411    0.78025    0.96876   1.00
H3       0.61056    0.87367    0.89205   1.00
H3       0.60719    0.84809    0.96505   1.00
C4       0.74965    0.97915    0.74984   1.00
C4       0.75035    1.02085    0.75016   1.00
C3       0.75150    0.95751    0.71470   1.00
C3       0.77465    1.04252    0.72479   1.00
C3       0.74793    0.95738    0.78491   1.00
C3       0.72596    1.04259    0.77542   1.00
C2       0.75007    0.89482    0.74985   1.00
C2       0.75007    1.10518    0.74985   1.00
C3a      0.75170    0.91599    0.71455   1.00
C3       0.77447    1.08382    0.72471   1.00
C3       0.74814    0.91611    0.78484   1.00
C3a      0.72569    1.08403    0.77543   1.00
H1       0.75248    0.97294    0.68717   1.00
H1       0.79425    1.02750    0.70508   1.00
C5       0.75350    0.89410    0.67654   1.00
H1       0.79355    1.09933    0.70487   1.00
H1       0.74709    0.90056    0.81232   1.00
C5       0.69905    1.10535    0.80310   1.00
H1       0.70598    1.02747    0.79464   1.00
H1       0.74720    0.97230    0.81274   1.00
H2       0.70797    1.09837    0.83349   1.00
H2       0.70175    1.13747    0.79948   1.00
N1       0.65844    1.09395    0.79657   1.00
C6       0.64321    1.05810    0.80170   1.00
C6       0.62936    1.11757    0.78470   1.00
C6       0.60396    1.05873    0.79282   1.00
C6       0.59516    1.09656    0.78200   1.00
H3       0.65952    1.03281    0.81135   1.00
H3       0.63276    1.14831    0.77821   1.00
H3       0.58397    1.03436    0.79414   1.00
H3       0.56696    1.10758    0.77317   1.00
H2       0.75396    0.86228    0.68276   1.00
H2       0.72732    0.90001    0.65837   1.00
N1       0.78832    0.90523    0.65469   1.00
C6       0.81969    0.88078    0.64315   1.00
C6       0.79790    0.94285    0.64022   1.00
C6       0.84668    0.90277    0.62287   1.00
C6       0.83330    0.94091    0.62109   1.00
H3       0.82189    0.84992    0.64947   1.00
H3       0.78025    0.96876    0.64411   1.00
H3       0.87367    0.89205    0.61056   1.00
H3       0.84809    0.96505    0.60719   1.00
C4       0.52085    0.74984    0.75035   1.00
C4       0.47915    0.75016    0.74965   1.00
C3       0.54249    0.71470    0.74850   1.00
C3       0.45748    0.72479    0.72535   1.00
C3       0.54262    0.78491    0.75207   1.00
C3       0.45741    0.77542    0.77404   1.00
C2       0.60518    0.74985    0.74993   1.00
C2       0.39482    0.74985    0.74993   1.00
C3a      0.58401    0.71455    0.74830   1.00
C3       0.41618    0.72471    0.72553   1.00
C3       0.58389    0.78484    0.75186   1.00
C3a      0.41597    0.77543    0.77431   1.00
H1       0.52706    0.68717    0.74752   1.00
H1       0.47250    0.70508    0.70575   1.00
C5       0.60590    0.67654    0.74650   1.00
H1       0.40067    0.70487    0.70645   1.00
H1       0.59944    0.81232    0.75291   1.00
C5       0.39465    0.80310    0.80095   1.00
H1       0.47253    0.79464    0.79402   1.00
H1       0.52770    0.81274    0.75280   1.00
H2       0.40163    0.83349    0.79203   1.00
H2       0.36253    0.79948    0.79825   1.00
N1       0.40605    0.79657    0.84156   1.00
C6       0.44190    0.80170    0.85679   1.00
C6       0.38243    0.78470    0.87064   1.00
C6       0.44127    0.79282    0.89604   1.00
C6       0.40344    0.78200    0.90484   1.00
H3       0.46719    0.81135    0.84048   1.00
H3       0.35169    0.77821    0.86724   1.00
H3       0.46564    0.79414    0.91603   1.00
H3       0.39242    0.77317    0.93304   1.00
H2       0.63772    0.68276    0.74604   1.00
H2       0.59999    0.65837    0.77268   1.00
N1       0.59477    0.65469    0.71168   1.00
C6       0.61922    0.64315    0.68031   1.00
C6       0.55715    0.64022    0.70210   1.00
C6       0.59723    0.62287    0.65332   1.00
C6       0.55909    0.62109    0.66670   1.00
H3       0.65008    0.64947    0.67811   1.00
H3       0.53124    0.64411    0.71975   1.00
H3       0.60795    0.61056    0.62633   1.00
H3       0.53495    0.60719    0.65191   1.00
C4       0.97915    0.74984    0.74965   1.00
C4       1.02085    0.75016    0.75035   1.00
C3       0.95751    0.71470    0.75150   1.00
C3       1.04252    0.72479    0.77465   1.00
C3       0.95738    0.78491    0.74793   1.00
C3       1.04259    0.77542    0.72596   1.00
C2       0.89482    0.74985    0.75007   1.00
C2       1.10518    0.74985    0.75007   1.00
C3a      0.91599    0.71455    0.75170   1.00
C3       1.08382    0.72471    0.77447   1.00
C3       0.91611    0.78484    0.74814   1.00
C3a      1.08403    0.77543    0.72569   1.00
H1       0.97294    0.68717    0.75248   1.00
H1       1.02750    0.70508    0.79425   1.00
C5       0.89410    0.67654    0.75350   1.00
H1       1.09933    0.70487    0.79355   1.00
H1       0.90056    0.81232    0.74709   1.00
C5       1.10535    0.80310    0.69905   1.00
H1       1.02747    0.79464    0.70598   1.00
H1       0.97230    0.81274    0.74720   1.00
H2       1.09837    0.83349    0.70797   1.00
H2       1.13747    0.79948    0.70175   1.00
N1       1.09395    0.79657    0.65844   1.00
C6       1.05810    0.80170    0.64321   1.00
C6       1.11757    0.78470    0.62936   1.00
C6       1.05873    0.79282    0.60396   1.00
C6       1.09656    0.78200    0.59516   1.00
H3       1.03281    0.81135    0.65952   1.00
H3       1.14831    0.77821    0.63276   1.00
H3       1.03436    0.79414    0.58397   1.00
H3       1.10758    0.77317    0.56696   1.00
H2       0.86228    0.68276    0.75396   1.00
H2       0.90001    0.65837    0.72732   1.00
N1       0.90523    0.65469    0.78832   1.00
C6       0.88078    0.64315    0.81969   1.00
C6       0.94285    0.64022    0.79790   1.00
C6       0.90277    0.62287    0.84668   1.00
C6       0.94091    0.62109    0.83330   1.00
H3       0.84992    0.64947    0.82189   1.00
H3       0.96876    0.64411    0.78025   1.00
H3       0.89205    0.61056    0.87367   1.00
H3       0.96505    0.60719    0.84809   1.00
C4       0.75035    0.52085    0.74984   1.00
C4       0.74965    0.47915    0.75016   1.00
C3       0.74850    0.54249    0.71470   1.00
C3       0.72535    0.45748    0.72479   1.00
C3       0.75207    0.54262    0.78491   1.00
C3       0.77404    0.45741    0.77542   1.00
C2       0.74993    0.60518    0.74985   1.00
C2       0.74993    0.39482    0.74985   1.00
C3a      0.74830    0.58401    0.71455   1.00
C3       0.72553    0.41618    0.72471   1.00
C3       0.75186    0.58389    0.78484   1.00
C3a      0.77431    0.41597    0.77543   1.00
H1       0.74752    0.52706    0.68717   1.00
H1       0.70575    0.47250    0.70508   1.00
C5       0.74650    0.60590    0.67654   1.00
H1       0.70645    0.40067    0.70487   1.00
H1       0.75291    0.59944    0.81232   1.00
C5       0.80095    0.39465    0.80310   1.00
H1       0.79402    0.47253    0.79464   1.00
H1       0.75280    0.52770    0.81274   1.00
H2       0.79203    0.40163    0.83349   1.00
H2       0.79825    0.36253    0.79948   1.00
N1       0.84156    0.40605    0.79657   1.00
C6       0.85679    0.44190    0.80170   1.00
C6       0.87064    0.38243    0.78470   1.00
C6       0.89604    0.44127    0.79282   1.00
C6       0.90484    0.40344    0.78200   1.00
H3       0.84048    0.46719    0.81135   1.00
H3       0.86724    0.35169    0.77821   1.00
H3       0.91603    0.46564    0.79414   1.00
H3       0.93304    0.39242    0.77317   1.00
H2       0.74604    0.63772    0.68276   1.00
H2       0.77268    0.59999    0.65837   1.00
N1       0.71168    0.59477    0.65469   1.00
C6       0.68031    0.61922    0.64315   1.00
C6       0.70210    0.55715    0.64022   1.00
C6       0.65332    0.59723    0.62287   1.00
C6       0.66670    0.55909    0.62109   1.00
H3       0.67811    0.65008    0.64947   1.00
H3       0.71975    0.53124    0.64411   1.00
H3       0.62633    0.60795    0.61056   1.00
H3       0.65191    0.53495    0.60719   1.00
C4       0.74984    0.75035    0.52085   1.00
C4       0.75016    0.74965    0.47915   1.00
C3       0.71470    0.74850    0.54249   1.00
C3       0.72479    0.72535    0.45748   1.00
C3       0.78491    0.75207    0.54262   1.00
C3       0.77542    0.77404    0.45741   1.00
C2       0.74985    0.74993    0.60518   1.00
C2       0.74985    0.74993    0.39482   1.00
C3a      0.71455    0.74830    0.58401   1.00
C3       0.72471    0.72553    0.41618   1.00
C3       0.78484    0.75186    0.58389   1.00
C3a      0.77543    0.77431    0.41597   1.00
H1       0.68717    0.74752    0.52706   1.00
H1       0.70508    0.70575    0.47250   1.00
C5       0.67654    0.74650    0.60590   1.00
H1       0.70487    0.70645    0.40067   1.00
H1       0.81232    0.75291    0.59944   1.00
C5       0.80310    0.80095    0.39465   1.00
H1       0.79464    0.79402    0.47253   1.00
H1       0.81274    0.75280    0.52770   1.00
H2       0.83349    0.79203    0.40163   1.00
H2       0.79948    0.79825    0.36253   1.00
N1       0.79657    0.84156    0.40605   1.00
C6       0.80170    0.85679    0.44190   1.00
C6       0.78470    0.87064    0.38243   1.00
C6       0.79282    0.89604    0.44127   1.00
C6       0.78200    0.90484    0.40344   1.00
H3       0.81135    0.84048    0.46719   1.00
H3       0.77821    0.86724    0.35169   1.00
H3       0.79414    0.91603    0.46564   1.00
H3       0.77317    0.93304    0.39242   1.00
H2       0.68276    0.74604    0.63772   1.00
H2       0.65837    0.77268    0.59999   1.00
N1       0.65469    0.71168    0.59477   1.00
C6       0.64315    0.68031    0.61922   1.00
C6       0.64022    0.70210    0.55715   1.00
C6       0.62287    0.65332    0.59723   1.00
C6       0.62109    0.66670    0.55909   1.00
H3       0.64947    0.67811    0.65008   1.00
H3       0.64411    0.71975    0.53124   1.00
H3       0.61056    0.62633    0.60795   1.00
H3       0.60719    0.65191    0.53495   1.00
C4       0.24984    0.24965    0.97915   1.00
C4       0.25016    0.25035    1.02085   1.00
C3       0.21470    0.25150    0.95751   1.00
C3       0.22479    0.27465    1.04252   1.00
C3       0.28491    0.24793    0.95738   1.00
C3       0.27542    0.22596    1.04259   1.00
C2       0.24985    0.25007    0.89482   1.00
C2       0.24985    0.25007    1.10518   1.00
C3a      0.21455    0.25170    0.91599   1.00
C3       0.22471    0.27447    1.08382   1.00
C3       0.28484    0.24814    0.91611   1.00
C3a      0.27543    0.22569    1.08403   1.00
H1       0.18717    0.25248    0.97294   1.00
H1       0.20508    0.29425    1.02750   1.00
C5       0.17654    0.25350    0.89410   1.00
H1       0.20487    0.29355    1.09933   1.00
H1       0.31232    0.24709    0.90056   1.00
C5       0.30310    0.19905    1.10535   1.00
H1       0.29464    0.20598    1.02747   1.00
H1       0.31274    0.24720    0.97230   1.00
H2       0.33349    0.20797    1.09837   1.00
H2       0.29948    0.20175    1.13747   1.00
N1       0.29657    0.15844    1.09395   1.00
C6       0.30170    0.14321    1.05810   1.00
C6       0.28470    0.12936    1.11757   1.00
C6       0.29282    0.10396    1.05873   1.00
C6       0.28200    0.09516    1.09656   1.00
H3       0.31135    0.15952    1.03281   1.00
H3       0.27821    0.13276    1.14831   1.00
H3       0.29414    0.08397    1.03436   1.00
H3       0.27317    0.06696    1.10758   1.00
H2       0.18276    0.25396    0.86228   1.00
H2       0.15837    0.22732    0.90001   1.00
N1       0.15469    0.28832    0.90523   1.00
C6       0.14315    0.31969    0.88078   1.00
C6       0.14022    0.29790    0.94285   1.00
C6       0.12287    0.34668    0.90277   1.00
C6       0.12109    0.33330    0.94091   1.00
H3       0.14947    0.32189    0.84992   1.00
H3       0.14411    0.28025    0.96876   1.00
H3       0.11056    0.37367    0.89205   1.00
H3       0.10719    0.34809    0.96505   1.00
C4       0.24965    0.47915    0.74984   1.00
C4       0.25035    0.52085    0.75016   1.00
C3       0.25150    0.45751    0.71470   1.00
C3       0.27465    0.54252    0.72479   1.00
C3       0.24793    0.45738    0.78491   1.00
C3       0.22596    0.54259    0.77542   1.00
C2       0.25007    0.39482    0.74985   1.00
C2       0.25007    0.60518    0.74985   1.00
C3a      0.25170    0.41599    0.71455   1.00
C3       0.27447    0.58382    0.72471   1.00
C3       0.24814    0.41611    0.78484   1.00
C3a      0.22569    0.58403    0.77543   1.00
H1       0.25248    0.47294    0.68717   1.00
H1       0.29425    0.52750    0.70508   1.00
C5       0.25350    0.39410    0.67654   1.00
H1       0.29355    0.59933    0.70487   1.00
H1       0.24709    0.40056    0.81232   1.00
C5       0.19905    0.60535    0.80310   1.00
H1       0.20598    0.52747    0.79464   1.00
H1       0.24720    0.47230    0.81274   1.00
H2       0.20797    0.59837    0.83349   1.00
H2       0.20175    0.63747    0.79948   1.00
N1       0.15844    0.59395    0.79657   1.00
C6       0.14321    0.55810    0.80170   1.00
C6       0.12936    0.61757    0.78470   1.00
C6       0.10396    0.55873    0.79282   1.00
C6       0.09516    0.59656    0.78200   1.00
H3       0.15952    0.53281    0.81135   1.00
H3       0.13276    0.64831    0.77821   1.00
H3       0.08397    0.53436    0.79414   1.00
H3       0.06696    0.60758    0.77317   1.00
H2       0.25396    0.36228    0.68276   1.00
H2       0.22732    0.40001    0.65837   1.00
N1       0.28832    0.40523    0.65469   1.00
C6       0.31969    0.38078    0.64315   1.00
C6       0.29790    0.44285    0.64022   1.00
C6       0.34668    0.40277    0.62287   1.00
C6       0.33330    0.44091    0.62109   1.00
H3       0.32189    0.34992    0.64947   1.00
H3       0.28025    0.46876    0.64411   1.00
H3       0.37367    0.39205    0.61056   1.00
H3       0.34809    0.46505    0.60719   1.00
C4       0.02085    0.24984    0.75035   1.00
C4       -0.02085   0.25016    0.74965   1.00
C3       0.04249    0.21470    0.74850   1.00
C3       -0.04252   0.22479    0.72535   1.00
C3       0.04262    0.28491    0.75207   1.00
C3       -0.04259   0.27542    0.77404   1.00
C2       0.10518    0.24985    0.74993   1.00
C2       -0.10518   0.24985    0.74993   1.00
C3a      0.08401    0.21455    0.74830   1.00
C3       -0.08382   0.22471    0.72553   1.00
C3       0.08389    0.28484    0.75186   1.00
C3a      -0.08403   0.27543    0.77431   1.00
H1       0.02706    0.18717    0.74752   1.00
H1       -0.02750   0.20508    0.70575   1.00
C5       0.10590    0.17654    0.74650   1.00
H1       -0.09933   0.20487    0.70645   1.00
H1       0.09944    0.31232    0.75291   1.00
C5       -0.10535   0.30310    0.80095   1.00
H1       -0.02747   0.29464    0.79402   1.00
H1       0.02770    0.31274    0.75280   1.00
H2       -0.09837   0.33349    0.79203   1.00
H2       -0.13747   0.29948    0.79825   1.00
N1       -0.09395   0.29657    0.84156   1.00
C6       -0.05810   0.30170    0.85679   1.00
C6       -0.11757   0.28470    0.87064   1.00
C6       -0.05873   0.29282    0.89604   1.00
C6       -0.09656   0.28200    0.90484   1.00
H3       -0.03281   0.31135    0.84048   1.00
H3       -0.14831   0.27821    0.86724   1.00
H3       -0.03436   0.29414    0.91603   1.00
H3       -0.10758   0.27317    0.93304   1.00
H2       0.13772    0.18276    0.74604   1.00
H2       0.09999    0.15837    0.77268   1.00
N1       0.09477    0.15469    0.71168   1.00
C6       0.11922    0.14315    0.68031   1.00
C6       0.05715    0.14022    0.70210   1.00
C6       0.09723    0.12287    0.65332   1.00
C6       0.05909    0.12109    0.66670   1.00
H3       0.15008    0.14947    0.67811   1.00
H3       0.03124    0.14411    0.71975   1.00
H3       0.10795    0.11056    0.62633   1.00
H3       0.03495    0.10719    0.65191   1.00
C4       0.47915    0.24984    0.74965   1.00
C4       0.52085    0.25016    0.75035   1.00
C3       0.45751    0.21470    0.75150   1.00
C3       0.54252    0.22479    0.77465   1.00
C3       0.45738    0.28491    0.74793   1.00
C3       0.54259    0.27542    0.72596   1.00
C2       0.39482    0.24985    0.75007   1.00
C2       0.60518    0.24985    0.75007   1.00
C3a      0.41599    0.21455    0.75170   1.00
C3       0.58382    0.22471    0.77447   1.00
C3       0.41611    0.28484    0.74814   1.00
C3a      0.58403    0.27543    0.72569   1.00
H1       0.47294    0.18717    0.75248   1.00
H1       0.52750    0.20508    0.79425   1.00
C5       0.39410    0.17654    0.75350   1.00
H1       0.59933    0.20487    0.79355   1.00
H1       0.40056    0.31232    0.74709   1.00
C5       0.60535    0.30310    0.69905   1.00
H1       0.52747    0.29464    0.70598   1.00
H1       0.47230    0.31274    0.74720   1.00
H2       0.59837    0.33349    0.70797   1.00
H2       0.63747    0.29948    0.70175   1.00
N1       0.59395    0.29657    0.65844   1.00
C6       0.55810    0.30170    0.64321   1.00
C6       0.61757    0.28470    0.62936   1.00
C6       0.55873    0.29282    0.60396   1.00
C6       0.59656    0.28200    0.59516   1.00
H3       0.53281    0.31135    0.65952   1.00
H3       0.64831    0.27821    0.63276   1.00
H3       0.53436    0.29414    0.58397   1.00
H3       0.60758    0.27317    0.56696   1.00
H2       0.36228    0.18276    0.75396   1.00
H2       0.40001    0.15837    0.72732   1.00
N1       0.40523    0.15469    0.78832   1.00
C6       0.38078    0.14315    0.81969   1.00
C6       0.44285    0.14022    0.79790   1.00
C6       0.40277    0.12287    0.84668   1.00
C6       0.44091    0.12109    0.83330   1.00
H3       0.34992    0.14947    0.82189   1.00
H3       0.46876    0.14411    0.78025   1.00
H3       0.39205    0.11056    0.87367   1.00
H3       0.46505    0.10719    0.84809   1.00
C4       0.25035    0.02085    0.74984   1.00
C4       0.24965    -0.02085   0.75016   1.00
C3       0.24850    0.04249    0.71470   1.00
C3       0.22535    -0.04252   0.72479   1.00
C3       0.25207    0.04262    0.78491   1.00
C3       0.27404    -0.04259   0.77542   1.00
C2       0.24993    0.10518    0.74985   1.00
C2       0.24993    -0.10518   0.74985   1.00
C3a      0.24830    0.08401    0.71455   1.00
C3       0.22553    -0.08382   0.72471   1.00
C3       0.25186    0.08389    0.78484   1.00
C3a      0.27431    -0.08403   0.77543   1.00
H1       0.24752    0.02706    0.68717   1.00
H1       0.20575    -0.02750   0.70508   1.00
C5       0.24650    0.10590    0.67654   1.00
H1       0.20645    -0.09933   0.70487   1.00
H1       0.25291    0.09944    0.81232   1.00
C5       0.30095    -0.10535   0.80310   1.00
H1       0.29402    -0.02747   0.79464   1.00
H1       0.25280    0.02770    0.81274   1.00
H2       0.29203    -0.09837   0.83349   1.00
H2       0.29825    -0.13747   0.79948   1.00
N1       0.34156    -0.09395   0.79657   1.00
C6       0.35679    -0.05810   0.80170   1.00
C6       0.37064    -0.11757   0.78470   1.00
C6       0.39604    -0.05873   0.79282   1.00
C6       0.40484    -0.09656   0.78200   1.00
H3       0.34048    -0.03281   0.81135   1.00
H3       0.36724    -0.14831   0.77821   1.00
H3       0.41603    -0.03436   0.79414   1.00
H3       0.43304    -0.10758   0.77317   1.00
H2       0.24604    0.13772    0.68276   1.00
H2       0.27268    0.09999    0.65837   1.00
N1       0.21168    0.09477    0.65469   1.00
C6       0.18031    0.11922    0.64315   1.00
C6       0.20210    0.05715    0.64022   1.00
C6       0.15332    0.09723    0.62287   1.00
C6       0.16670    0.05909    0.62109   1.00
H3       0.17811    0.15008    0.64947   1.00
H3       0.21975    0.03124    0.64411   1.00
H3       0.12633    0.10795    0.61056   1.00
H3       0.15191    0.03495    0.60719   1.00
C4       0.24984    0.25035    0.52085   1.00
C4       0.25016    0.24965    0.47915   1.00
C3       0.21470    0.24850    0.54249   1.00
C3       0.22479    0.22535    0.45748   1.00
C3       0.28491    0.25207    0.54262   1.00
C3       0.27542    0.27404    0.45741   1.00
C2       0.24985    0.24993    0.60518   1.00
C2       0.24985    0.24993    0.39482   1.00
C3a      0.21455    0.24830    0.58401   1.00
C3       0.22471    0.22553    0.41618   1.00
C3       0.28484    0.25186    0.58389   1.00
C3a      0.27543    0.27431    0.41597   1.00
H1       0.18717    0.24752    0.52706   1.00
H1       0.20508    0.20575    0.47250   1.00
C5       0.17654    0.24650    0.60590   1.00
H1       0.20487    0.20645    0.40067   1.00
H1       0.31232    0.25291    0.59944   1.00
C5       0.30310    0.30095    0.39465   1.00
H1       0.29464    0.29402    0.47253   1.00
H1       0.31274    0.25280    0.52770   1.00
H2       0.33349    0.29203    0.40163   1.00
H2       0.29948    0.29825    0.36253   1.00
N1       0.29657    0.34156    0.40605   1.00
C6       0.30170    0.35679    0.44190   1.00
C6       0.28470    0.37064    0.38243   1.00
C6       0.29282    0.39604    0.44127   1.00
C6       0.28200    0.40484    0.40344   1.00
H3       0.31135    0.34048    0.46719   1.00
H3       0.27821    0.36724    0.35169   1.00
H3       0.29414    0.41603    0.46564   1.00
H3       0.27317    0.43304    0.39242   1.00
H2       0.18276    0.24604    0.63772   1.00
H2       0.15837    0.27268    0.59999   1.00
N1       0.15469    0.21168    0.59477   1.00
C6       0.14315    0.18031    0.61922   1.00
C6       0.14022    0.20210    0.55715   1.00
C6       0.12287    0.15332    0.59723   1.00
C6       0.12109    0.16670    0.55909   1.00
H3       0.14947    0.17811    0.65008   1.00
H3       0.14411    0.21975    0.53124   1.00
H3       0.11056    0.12633    0.60795   1.00
H3       0.10719    0.15191    0.53495   1.00
C4       0.24984    0.74965    0.47915   1.00
C4       0.25016    0.75035    0.52085   1.00
C3       0.21470    0.75150    0.45751   1.00
C3       0.22479    0.77465    0.54252   1.00
C3       0.28491    0.74793    0.45738   1.00
C3       0.27542    0.72596    0.54259   1.00
C2       0.24985    0.75007    0.39482   1.00
C2       0.24985    0.75007    0.60518   1.00
C3a      0.21455    0.75170    0.41599   1.00
C3       0.22471    0.77447    0.58382   1.00
C3       0.28484    0.74814    0.41611   1.00
C3a      0.27543    0.72569    0.58403   1.00
H1       0.18717    0.75248    0.47294   1.00
H1       0.20508    0.79425    0.52750   1.00
C5       0.17654    0.75350    0.39410   1.00
H1       0.20487    0.79355    0.59933   1.00
H1       0.31232    0.74709    0.40056   1.00
C5       0.30310    0.69905    0.60535   1.00
H1       0.29464    0.70598    0.52747   1.00
H1       0.31274    0.74720    0.47230   1.00
H2       0.33349    0.70797    0.59837   1.00
H2       0.29948    0.70175    0.63747   1.00
N1       0.29657    0.65844    0.59395   1.00
C6       0.30170    0.64321    0.55810   1.00
C6       0.28470    0.62936    0.61757   1.00
C6       0.29282    0.60396    0.55873   1.00
C6       0.28200    0.59516    0.59656   1.00
H3       0.31135    0.65952    0.53281   1.00
H3       0.27821    0.63276    0.64831   1.00
H3       0.29414    0.58397    0.53436   1.00
H3       0.27317    0.56696    0.60758   1.00
H2       0.18276    0.75396    0.36228   1.00
H2       0.15837    0.72732    0.40001   1.00
N1       0.15469    0.78832    0.40523   1.00
C6       0.14315    0.81969    0.38078   1.00
C6       0.14022    0.79790    0.44285   1.00
C6       0.12287    0.84668    0.40277   1.00
C6       0.12109    0.83330    0.44091   1.00
H3       0.14947    0.82189    0.34992   1.00
H3       0.14411    0.78025    0.46876   1.00
H3       0.11056    0.87367    0.39205   1.00
H3       0.10719    0.84809    0.46505   1.00
C4       0.24965    0.97915    0.24984   1.00
C4       0.25035    1.02085    0.25016   1.00
C3       0.25150    0.95751    0.21470   1.00
C3       0.27465    1.04252    0.22479   1.00
C3       0.24793    0.95738    0.28491   1.00
C3       0.22596    1.04259    0.27542   1.00
C2       0.25007    0.89482    0.24985   1.00
C2       0.25007    1.10518    0.24985   1.00
C3a      0.25170    0.91599    0.21455   1.00
C3       0.27447    1.08382    0.22471   1.00
C3       0.24814    0.91611    0.28484   1.00
C3a      0.22569    1.08403    0.27543   1.00
H1       0.25248    0.97294    0.18717   1.00
H1       0.29425    1.02750    0.20508   1.00
C5       0.25350    0.89410    0.17654   1.00
H1       0.29355    1.09933    0.20487   1.00
H1       0.24709    0.90056    0.31232   1.00
C5       0.19905    1.10535    0.30310   1.00
H1       0.20598    1.02747    0.29464   1.00
H1       0.24720    0.97230    0.31274   1.00
H2       0.20797    1.09837    0.33349   1.00
H2       0.20175    1.13747    0.29948   1.00
N1       0.15844    1.09395    0.29657   1.00
C6       0.14321    1.05810    0.30170   1.00
C6       0.12936    1.11757    0.28470   1.00
C6       0.10396    1.05873    0.29282   1.00
C6       0.09516    1.09656    0.28200   1.00
H3       0.15952    1.03281    0.31135   1.00
H3       0.13276    1.14831    0.27821   1.00
H3       0.08397    1.03436    0.29414   1.00
H3       0.06696    1.10758    0.27317   1.00
H2       0.25396    0.86228    0.18276   1.00
H2       0.22732    0.90001    0.15837   1.00
N1       0.28832    0.90523    0.15469   1.00
C6       0.31969    0.88078    0.14315   1.00
C6       0.29790    0.94285    0.14022   1.00
C6       0.34668    0.90277    0.12287   1.00
C6       0.33330    0.94091    0.12109   1.00
H3       0.32189    0.84992    0.14947   1.00
H3       0.28025    0.96876    0.14411   1.00
H3       0.37367    0.89205    0.11056   1.00
H3       0.34809    0.96505    0.10719   1.00
C4       0.02085    0.74984    0.25035   1.00
C4       -0.02085   0.75016    0.24965   1.00
C3       0.04249    0.71470    0.24850   1.00
C3       -0.04252   0.72479    0.22535   1.00
C3       0.04262    0.78491    0.25207   1.00
C3       -0.04259   0.77542    0.27404   1.00
C2       0.10518    0.74985    0.24993   1.00
C2       -0.10518   0.74985    0.24993   1.00
C3a      0.08401    0.71455    0.24830   1.00
C3       -0.08382   0.72471    0.22553   1.00
C3       0.08389    0.78484    0.25186   1.00
C3a      -0.08403   0.77543    0.27431   1.00
H1       0.02706    0.68717    0.24752   1.00
H1       -0.02750   0.70508    0.20575   1.00
C5       0.10590    0.67654    0.24650   1.00
H1       -0.09933   0.70487    0.20645   1.00
H1       0.09944    0.81232    0.25291   1.00
C5       -0.10535   0.80310    0.30095   1.00
H1       -0.02747   0.79464    0.29402   1.00
H1       0.02770    0.81274    0.25280   1.00
H2       -0.09837   0.83349    0.29203   1.00
H2       -0.13747   0.79948    0.29825   1.00
N1       -0.09395   0.79657    0.34156   1.00
C6       -0.05810   0.80170    0.35679   1.00
C6       -0.11757   0.78470    0.37064   1.00
C6       -0.05873   0.79282    0.39604   1.00
C6       -0.09656   0.78200    0.40484   1.00
H3       -0.03281   0.81135    0.34048   1.00
H3       -0.14831   0.77821    0.36724   1.00
H3       -0.03436   0.79414    0.41603   1.00
H3       -0.10758   0.77317    0.43304   1.00
H2       0.13772    0.68276    0.24604   1.00
H2       0.09999    0.65837    0.27268   1.00
N1       0.09477    0.65469    0.21168   1.00
C6       0.11922    0.64315    0.18031   1.00
C6       0.05715    0.64022    0.20210   1.00
C6       0.09723    0.62287    0.15332   1.00
C6       0.05909    0.62109    0.16670   1.00
H3       0.15008    0.64947    0.17811   1.00
H3       0.03124    0.64411    0.21975   1.00
H3       0.10795    0.61056    0.12633   1.00
H3       0.03495    0.60719    0.15191   1.00
C4       0.47915    0.74984    0.24965   1.00
C4       0.52085    0.75016    0.25035   1.00
C3       0.45751    0.71470    0.25150   1.00
C3       0.54252    0.72479    0.27465   1.00
C3       0.45738    0.78491    0.24793   1.00
C3       0.54259    0.77542    0.22596   1.00
C2       0.39482    0.74985    0.25007   1.00
C2       0.60518    0.74985    0.25007   1.00
C3a      0.41599    0.71455    0.25170   1.00
C3       0.58382    0.72471    0.27447   1.00
C3       0.41611    0.78484    0.24814   1.00
C3a      0.58403    0.77543    0.22569   1.00
H1       0.47294    0.68717    0.25248   1.00
H1       0.52750    0.70508    0.29425   1.00
C5       0.39410    0.67654    0.25350   1.00
H1       0.59933    0.70487    0.29355   1.00
H1       0.40056    0.81232    0.24709   1.00
C5       0.60535    0.80310    0.19905   1.00
H1       0.52747    0.79464    0.20598   1.00
H1       0.47230    0.81274    0.24720   1.00
H2       0.59837    0.83349    0.20797   1.00
H2       0.63747    0.79948    0.20175   1.00
N1       0.59395    0.79657    0.15844   1.00
C6       0.55810    0.80170    0.14321   1.00
C6       0.61757    0.78470    0.12936   1.00
C6       0.55873    0.79282    0.10396   1.00
C6       0.59656    0.78200    0.09516   1.00
H3       0.53281    0.81135    0.15952   1.00
H3       0.64831    0.77821    0.13276   1.00
H3       0.53436    0.79414    0.08397   1.00
H3       0.60758    0.77317    0.06696   1.00
H2       0.36228    0.68276    0.25396   1.00
H2       0.40001    0.65837    0.22732   1.00
N1       0.40523    0.65469    0.28832   1.00
C6       0.38078    0.64315    0.31969   1.00
C6       0.44285    0.64022    0.29790   1.00
C6       0.40277    0.62287    0.34668   1.00
C6       0.44091    0.62109    0.33330   1.00
H3       0.34992    0.64947    0.32189   1.00
H3       0.46876    0.64411    0.28025   1.00
H3       0.39205    0.61056    0.37367   1.00
H3       0.46505    0.60719    0.34809   1.00
C4       0.25035    0.52085    0.24984   1.00
C4       0.24965    0.47915    0.25016   1.00
C3       0.24850    0.54249    0.21470   1.00
C3       0.22535    0.45748    0.22479   1.00
C3       0.25207    0.54262    0.28491   1.00
C3       0.27404    0.45741    0.27542   1.00
C2       0.24993    0.60518    0.24985   1.00
C2       0.24993    0.39482    0.24985   1.00
C3a      0.24830    0.58401    0.21455   1.00
C3       0.22553    0.41618    0.22471   1.00
C3       0.25186    0.58389    0.28484   1.00
C3a      0.27431    0.41597    0.27543   1.00
H1       0.24752    0.52706    0.18717   1.00
H1       0.20575    0.47250    0.20508   1.00
C5       0.24650    0.60590    0.17654   1.00
H1       0.20645    0.40067    0.20487   1.00
H1       0.25291    0.59944    0.31232   1.00
C5       0.30095    0.39465    0.30310   1.00
H1       0.29402    0.47253    0.29464   1.00
H1       0.25280    0.52770    0.31274   1.00
H2       0.29203    0.40163    0.33349   1.00
H2       0.29825    0.36253    0.29948   1.00
N1       0.34156    0.40605    0.29657   1.00
C6       0.35679    0.44190    0.30170   1.00
C6       0.37064    0.38243    0.28470   1.00
C6       0.39604    0.44127    0.29282   1.00
C6       0.40484    0.40344    0.28200   1.00
H3       0.34048    0.46719    0.31135   1.00
H3       0.36724    0.35169    0.27821   1.00
H3       0.41603    0.46564    0.29414   1.00
H3       0.43304    0.39242    0.27317   1.00
H2       0.24604    0.63772    0.18276   1.00
H2       0.27268    0.59999    0.15837   1.00
N1       0.21168    0.59477    0.15469   1.00
C6       0.18031    0.61922    0.14315   1.00
C6       0.20210    0.55715    0.14022   1.00
C6       0.15332    0.59723    0.12287   1.00
C6       0.16670    0.55909    0.12109   1.00
H3       0.17811    0.65008    0.14947   1.00
H3       0.21975    0.53124    0.14411   1.00
H3       0.12633    0.60795    0.11056   1.00
H3       0.15191    0.53495    0.10719   1.00
C4       0.24984    0.75035    0.02085   1.00
C4       0.25016    0.74965    -0.02085   1.00
C3       0.21470    0.74850    0.04249   1.00
C3       0.22479    0.72535    -0.04252   1.00
C3       0.28491    0.75207    0.04262   1.00
C3       0.27542    0.77404    -0.04259   1.00
C2       0.24985    0.74993    0.10518   1.00
C2       0.24985    0.74993    -0.10518   1.00
C3a      0.21455    0.74830    0.08401   1.00
C3       0.22471    0.72553    -0.08382   1.00
C3       0.28484    0.75186    0.08389   1.00
C3a      0.27543    0.77431    -0.08403   1.00
H1       0.18717    0.74752    0.02706   1.00
H1       0.20508    0.70575    -0.02750   1.00
C5       0.17654    0.74650    0.10590   1.00
H1       0.20487    0.70645    -0.09933   1.00
H1       0.31232    0.75291    0.09944   1.00
C5       0.30310    0.80095    -0.10535   1.00
H1       0.29464    0.79402    -0.02747   1.00
H1       0.31274    0.75280    0.02770   1.00
H2       0.33349    0.79203    -0.09837   1.00
H2       0.29948    0.79825    -0.13747   1.00
N1       0.29657    0.84156    -0.09395   1.00
C6       0.30170    0.85679    -0.05810   1.00
C6       0.28470    0.87064    -0.11757   1.00
C6       0.29282    0.89604    -0.05873   1.00
C6       0.28200    0.90484    -0.09656   1.00
H3       0.31135    0.84048    -0.03281   1.00
H3       0.27821    0.86724    -0.14831   1.00
H3       0.29414    0.91603    -0.03436   1.00
H3       0.27317    0.93304    -0.10758   1.00
H2       0.18276    0.74604    0.13772   1.00
H2       0.15837    0.77268    0.09999   1.00
N1       0.15469    0.71168    0.09477   1.00
C6       0.14315    0.68031    0.11922   1.00
C6       0.14022    0.70210    0.05715   1.00
C6       0.12287    0.65332    0.09723   1.00
C6       0.12109    0.66670    0.05909   1.00
H3       0.14947    0.67811    0.15008   1.00
H3       0.14411    0.71975    0.03124   1.00
H3       0.11056    0.62633    0.10795   1.00
H3       0.10719    0.65191    0.03495   1.00
C4       0.74984    0.24965    0.47915   1.00
C4       0.75016    0.25035    0.52085   1.00
C3       0.71470    0.25150    0.45751   1.00
C3       0.72479    0.27465    0.54252   1.00
C3       0.78491    0.24793    0.45738   1.00
C3       0.77542    0.22596    0.54259   1.00
C2       0.74985    0.25007    0.39482   1.00
C2       0.74985    0.25007    0.60518   1.00
C3a      0.71455    0.25170    0.41599   1.00
C3       0.72471    0.27447    0.58382   1.00
C3       0.78484    0.24814    0.41611   1.00
C3a      0.77543    0.22569    0.58403   1.00
H1       0.68717    0.25248    0.47294   1.00
H1       0.70508    0.29425    0.52750   1.00
C5       0.67654    0.25350    0.39410   1.00
H1       0.70487    0.29355    0.59933   1.00
H1       0.81232    0.24709    0.40056   1.00
C5       0.80310    0.19905    0.60535   1.00
H1       0.79464    0.20598    0.52747   1.00
H1       0.81274    0.24720    0.47230   1.00
H2       0.83349    0.20797    0.59837   1.00
H2       0.79948    0.20175    0.63747   1.00
N1       0.79657    0.15844    0.59395   1.00
C6       0.80170    0.14321    0.55810   1.00
C6       0.78470    0.12936    0.61757   1.00
C6       0.79282    0.10396    0.55873   1.00
C6       0.78200    0.09516    0.59656   1.00
H3       0.81135    0.15952    0.53281   1.00
H3       0.77821    0.13276    0.64831   1.00
H3       0.79414    0.08397    0.53436   1.00
H3       0.77317    0.06696    0.60758   1.00
H2       0.68276    0.25396    0.36228   1.00
H2       0.65837    0.22732    0.40001   1.00
N1       0.65469    0.28832    0.40523   1.00
C6       0.64315    0.31969    0.38078   1.00
C6       0.64022    0.29790    0.44285   1.00
C6       0.62287    0.34668    0.40277   1.00
C6       0.62109    0.33330    0.44091   1.00
H3       0.64947    0.32189    0.34992   1.00
H3       0.64411    0.28025    0.46876   1.00
H3       0.61056    0.37367    0.39205   1.00
H3       0.60719    0.34809    0.46505   1.00
C4       0.74965    0.47915    0.24984   1.00
C4       0.75035    0.52085    0.25016   1.00
C3       0.75150    0.45751    0.21470   1.00
C3       0.77465    0.54252    0.22479   1.00
C3       0.74793    0.45738    0.28491   1.00
C3       0.72596    0.54259    0.27542   1.00
C2       0.75007    0.39482    0.24985   1.00
C2       0.75007    0.60518    0.24985   1.00
C3a      0.75170    0.41599    0.21455   1.00
C3       0.77447    0.58382    0.22471   1.00
C3       0.74814    0.41611    0.28484   1.00
C3a      0.72569    0.58403    0.27543   1.00
H1       0.75248    0.47294    0.18717   1.00
H1       0.79425    0.52750    0.20508   1.00
C5       0.75350    0.39410    0.17654   1.00
H1       0.79355    0.59933    0.20487   1.00
H1       0.74709    0.40056    0.31232   1.00
C5       0.69905    0.60535    0.30310   1.00
H1       0.70598    0.52747    0.29464   1.00
H1       0.74720    0.47230    0.31274   1.00
H2       0.70797    0.59837    0.33349   1.00
H2       0.70175    0.63747    0.29948   1.00
N1       0.65844    0.59395    0.29657   1.00
C6       0.64321    0.55810    0.30170   1.00
C6       0.62936    0.61757    0.28470   1.00
C6       0.60396    0.55873    0.29282   1.00
C6       0.59516    0.59656    0.28200   1.00
H3       0.65952    0.53281    0.31135   1.00
H3       0.63276    0.64831    0.27821   1.00
H3       0.58397    0.53436    0.29414   1.00
H3       0.56696    0.60758    0.27317   1.00
H2       0.75396    0.36228    0.18276   1.00
H2       0.72732    0.40001    0.15837   1.00
N1       0.78832    0.40523    0.15469   1.00
C6       0.81969    0.38078    0.14315   1.00
C6       0.79790    0.44285    0.14022   1.00
C6       0.84668    0.40277    0.12287   1.00
C6       0.83330    0.44091    0.12109   1.00
H3       0.82189    0.34992    0.14947   1.00
H3       0.78025    0.46876    0.14411   1.00
H3       0.87367    0.39205    0.11056   1.00
H3       0.84809    0.46505    0.10719   1.00
C4       0.52085    0.24984    0.25035   1.00
C4       0.47915    0.25016    0.24965   1.00
C3       0.54249    0.21470    0.24850   1.00
C3       0.45748    0.22479    0.22535   1.00
C3       0.54262    0.28491    0.25207   1.00
C3       0.45741    0.27542    0.27404   1.00
C2       0.60518    0.24985    0.24993   1.00
C2       0.39482    0.24985    0.24993   1.00
C3a      0.58401    0.21455    0.24830   1.00
C3       0.41618    0.22471    0.22553   1.00
C3       0.58389    0.28484    0.25186   1.00
C3a      0.41597    0.27543    0.27431   1.00
H1       0.52706    0.18717    0.24752   1.00
H1       0.47250    0.20508    0.20575   1.00
C5       0.60590    0.17654    0.24650   1.00
H1       0.40067    0.20487    0.20645   1.00
H1       0.59944    0.31232    0.25291   1.00
C5       0.39465    0.30310    0.30095   1.00
H1       0.47253    0.29464    0.29402   1.00
H1       0.52770    0.31274    0.25280   1.00
H2       0.40163    0.33349    0.29203   1.00
H2       0.36253    0.29948    0.29825   1.00
N1       0.40605    0.29657    0.34156   1.00
C6       0.44190    0.30170    0.35679   1.00
C6       0.38243    0.28470    0.37064   1.00
C6       0.44127    0.29282    0.39604   1.00
C6       0.40344    0.28200    0.40484   1.00
H3       0.46719    0.31135    0.34048   1.00
H3       0.35169    0.27821    0.36724   1.00
H3       0.46564    0.29414    0.41603   1.00
H3       0.39242    0.27317    0.43304   1.00
H2       0.63772    0.18276    0.24604   1.00
H2       0.59999    0.15837    0.27268   1.00
N1       0.59477    0.15469    0.21168   1.00
C6       0.61922    0.14315    0.18031   1.00
C6       0.55715    0.14022    0.20210   1.00
C6       0.59723    0.12287    0.15332   1.00
C6       0.55909    0.12109    0.16670   1.00
H3       0.65008    0.14947    0.17811   1.00
H3       0.53124    0.14411    0.21975   1.00
H3       0.60795    0.11056    0.12633   1.00
H3       0.53495    0.10719    0.15191   1.00
C4       0.97915    0.24984    0.24965   1.00
C4       1.02085    0.25016    0.25035   1.00
C3       0.95751    0.21470    0.25150   1.00
C3       1.04252    0.22479    0.27465   1.00
C3       0.95738    0.28491    0.24793   1.00
C3       1.04259    0.27542    0.22596   1.00
C2       0.89482    0.24985    0.25007   1.00
C2       1.10518    0.24985    0.25007   1.00
C3a      0.91599    0.21455    0.25170   1.00
C3       1.08382    0.22471    0.27447   1.00
C3       0.91611    0.28484    0.24814   1.00
C3a      1.08403    0.27543    0.22569   1.00
H1       0.97294    0.18717    0.25248   1.00
H1       1.02750    0.20508    0.29425   1.00
C5       0.89410    0.17654    0.25350   1.00
H1       1.09933    0.20487    0.29355   1.00
H1       0.90056    0.31232    0.24709   1.00
C5       1.10535    0.30310    0.19905   1.00
H1       1.02747    0.29464    0.20598   1.00
H1       0.97230    0.31274    0.24720   1.00
H2       1.09837    0.33349    0.20797   1.00
H2       1.13747    0.29948    0.20175   1.00
N1       1.09395    0.29657    0.15844   1.00
C6       1.05810    0.30170    0.14321   1.00
C6       1.11757    0.28470    0.12936   1.00
C6       1.05873    0.29282    0.10396   1.00
C6       1.09656    0.28200    0.09516   1.00
H3       1.03281    0.31135    0.15952   1.00
H3       1.14831    0.27821    0.13276   1.00
H3       1.03436    0.29414    0.08397   1.00
H3       1.10758    0.27317    0.06696   1.00
H2       0.86228    0.18276    0.25396   1.00
H2       0.90001    0.15837    0.22732   1.00
N1       0.90523    0.15469    0.28832   1.00
C6       0.88078    0.14315    0.31969   1.00
C6       0.94285    0.14022    0.29790   1.00
C6       0.90277    0.12287    0.34668   1.00
C6       0.94091    0.12109    0.33330   1.00
H3       0.84992    0.14947    0.32189   1.00
H3       0.96876    0.14411    0.28025   1.00
H3       0.89205    0.11056    0.37367   1.00
H3       0.96505    0.10719    0.34809   1.00
C4       0.75035    0.02085    0.24984   1.00
C4       0.74965    -0.02085   0.25016   1.00
C3       0.74850    0.04249    0.21470   1.00
C3       0.72535    -0.04252   0.22479   1.00
C3       0.75207    0.04262    0.28491   1.00
C3       0.77404    -0.04259   0.27542   1.00
C2       0.74993    0.10518    0.24985   1.00
C2       0.74993    -0.10518   0.24985   1.00
C3a      0.74830    0.08401    0.21455   1.00
C3       0.72553    -0.08382   0.22471   1.00
C3       0.75186    0.08389    0.28484   1.00
C3a      0.77431    -0.08403   0.27543   1.00
H1       0.74752    0.02706    0.18717   1.00
H1       0.70575    -0.02750   0.20508   1.00
C5       0.74650    0.10590    0.17654   1.00
H1       0.70645    -0.09933   0.20487   1.00
H1       0.75291    0.09944    0.31232   1.00
C5       0.80095    -0.10535   0.30310   1.00
H1       0.79402    -0.02747   0.29464   1.00
H1       0.75280    0.02770    0.31274   1.00
H2       0.79203    -0.09837   0.33349   1.00
H2       0.79825    -0.13747   0.29948   1.00
N1       0.84156    -0.09395   0.29657   1.00
C6       0.85679    -0.05810   0.30170   1.00
C6       0.87064    -0.11757   0.28470   1.00
C6       0.89604    -0.05873   0.29282   1.00
C6       0.90484    -0.09656   0.28200   1.00
H3       0.84048    -0.03281   0.31135   1.00
H3       0.86724    -0.14831   0.27821   1.00
H3       0.91603    -0.03436   0.29414   1.00
H3       0.93304    -0.10758   0.27317   1.00
H2       0.74604    0.13772    0.18276   1.00
H2       0.77268    0.09999    0.15837   1.00
N1       0.71168    0.09477    0.15469   1.00
C6       0.68031    0.11922    0.14315   1.00
C6       0.70210    0.05715    0.14022   1.00
C6       0.65332    0.09723    0.12287   1.00
C6       0.66670    0.05909    0.12109   1.00
H3       0.67811    0.15008    0.14947   1.00
H3       0.71975    0.03124    0.14411   1.00
H3       0.62633    0.10795    0.11056   1.00
H3       0.65191    0.03495    0.10719   1.00
C4       0.74984    0.25035    0.02085   1.00
C4       0.75016    0.24965    -0.02085   1.00
C3       0.71470    0.24850    0.04249   1.00
C3       0.72479    0.22535    -0.04252   1.00
C3       0.78491    0.25207    0.04262   1.00
C3       0.77542    0.27404    -0.04259   1.00
C2       0.74985    0.24993    0.10518   1.00
C2       0.74985    0.24993    -0.10518   1.00
C3a      0.71455    0.24830    0.08401   1.00
C3       0.72471    0.22553    -0.08382   1.00
C3       0.78484    0.25186    0.08389   1.00
C3a      0.77543    0.27431    -0.08403   1.00
H1       0.68717    0.24752    0.02706   1.00
H1       0.70508    0.20575    -0.02750   1.00
C5       0.67654    0.24650    0.10590   1.00
H1       0.70487    0.20645    -0.09933   1.00
H1       0.81232    0.25291    0.09944   1.00
C5       0.80310    0.30095    -0.10535   1.00
H1       0.79464    0.29402    -0.02747   1.00
H1       0.81274    0.25280    0.02770   1.00
H2       0.83349    0.29203    -0.09837   1.00
H2       0.79948    0.29825    -0.13747   1.00
N1       0.79657    0.34156    -0.09395   1.00
C6       0.80170    0.35679    -0.05810   1.00
C6       0.78470    0.37064    -0.11757   1.00
C6       0.79282    0.39604    -0.05873   1.00
C6       0.78200    0.40484    -0.09656   1.00
H3       0.81135    0.34048    -0.03281   1.00
H3       0.77821    0.36724    -0.14831   1.00
H3       0.79414    0.41603    -0.03436   1.00
H3       0.77317    0.43304    -0.10758   1.00
H2       0.68276    0.24604    0.13772   1.00
H2       0.65837    0.27268    0.09999   1.00
N1       0.65469    0.21168    0.09477   1.00
C6       0.64315    0.18031    0.11922   1.00
C6       0.64022    0.20210    0.05715   1.00
C6       0.62287    0.15332    0.09723   1.00
C6       0.62109    0.16670    0.05909   1.00
H3       0.64947    0.17811    0.15008   1.00
H3       0.64411    0.21975    0.03124   1.00
H3       0.61056    0.12633    0.10795   1.00
H3       0.60719    0.15191    0.03495   1.00
C4       0.91484    0.91465    1.14415   1.00
C4       0.91516    0.91535    1.18585   1.00
C3       0.87970    0.91650    1.12251   1.00
C3       0.88979    0.93965    1.20752   1.00
C3       0.94991    0.91293    1.12238   1.00
C3       0.94042    0.89096    1.20759   1.00
C2       0.91485    0.91507    1.05982   1.00
C2       0.91485    0.91507    1.27018   1.00
C3a      0.87955    0.91670    1.08099   1.00
C3       0.88971    0.93947    1.24882   1.00
C3       0.94984    0.91314    1.08111   1.00
C3a      0.94043    0.89069    1.24903   1.00
H1       0.85217    0.91748    1.13794   1.00
H1       0.87008    0.95925    1.19250   1.00
C5       0.84154    0.91850    1.05910   1.00
H1       0.86987    0.95855    1.26433   1.00
H1       0.97732    0.91209    1.06556   1.00
C5       0.96810    0.86405    1.27035   1.00
H1       0.95964    0.87098    1.19247   1.00
H1       0.97774    0.91220    1.13730   1.00
H2       0.99849    0.87297    1.26337   1.00
H2       0.96448    0.86675    1.30247   1.00
N1       0.96157    0.82344    1.25895   1.00
C6       0.96670    0.80821    1.22310   1.00
C6       0.94970    0.79436    1.28257   1.00
C6       0.95782    0.76896    1.22373   1.00
C6       0.94700    0.76016    1.26156   1.00
H3       0.97635    0.82452    1.19781   1.00
H3       0.94321    0.79776    1.31331   1.00
H3       0.95914    0.74897    1.19936   1.00
H3       0.93817    0.73196    1.27258   1.00
H2       0.84776    0.91896    1.02728   1.00
H2       0.82337    0.89232    1.06501   1.00
N1       0.81969    0.95332    1.07023   1.00
C6       0.80815    0.98469    1.04578   1.00
C6       0.80522    0.96290    1.10785   1.00
C6       0.78787    1.01168    1.06777   1.00
C6       0.78609    0.99830    1.10591   1.00
H3       0.81447    0.98689    1.01492   1.00
H3       0.80911    0.94525    1.13376   1.00
H3       0.77556    1.03867    1.05705   1.00
H3       0.77219    1.01309    1.13005   1.00
C4       0.91465    1.14415    0.91484   1.00
C4       0.91535    1.18585    0.91516   1.00
C3       0.91650    1.12251    0.87970   1.00
C3       0.93965    1.20752    0.88979   1.00
C3       0.91293    1.12238    0.94991   1.00
C3       0.89096    1.20759    0.94042   1.00
C2       0.91507    1.05982    0.91485   1.00
C2       0.91507    1.27018    0.91485   1.00
C3a      0.91670    1.08099    0.87955   1.00
C3       0.93947    1.24882    0.88971   1.00
C3       0.91314    1.08111    0.94984   1.00
C3a      0.89069    1.24903    0.94043   1.00
H1       0.91748    1.13794    0.85217   1.00
H1       0.95925    1.19250    0.87008   1.00
C5       0.91850    1.05910    0.84154   1.00
H1       0.95855    1.26433    0.86987   1.00
H1       0.91209    1.06556    0.97732   1.00
C5       0.86405    1.27035    0.96810   1.00
H1       0.87098    1.19247    0.95964   1.00
H1       0.91220    1.13730    0.97774   1.00
H2       0.87297    1.26337    0.99849   1.00
H2       0.86675    1.30247    0.96448   1.00
N1       0.82344    1.25895    0.96157   1.00
C6       0.80821    1.22310    0.96670   1.00
C6       0.79436    1.28257    0.94970   1.00
C6       0.76896    1.22373    0.95782   1.00
C6       0.76016    1.26156    0.94700   1.00
H3       0.82452    1.19781    0.97635   1.00
H3       0.79776    1.31331    0.94321   1.00
H3       0.74897    1.19936    0.95914   1.00
H3       0.73196    1.27258    0.93817   1.00
H2       0.91896    1.02728    0.84776   1.00
H2       0.89232    1.06501    0.82337   1.00
N1       0.95332    1.07023    0.81969   1.00
C6       0.98469    1.04578    0.80815   1.00
C6       0.96290    1.10785    0.80522   1.00
C6       1.01168    1.06777    0.78787   1.00
C6       0.99830    1.10591    0.78609   1.00
H3       0.98689    1.01492    0.81447   1.00
H3       0.94525    1.13376    0.80911   1.00
H3       1.03867    1.05705    0.77556   1.00
H3       1.01309    1.13005    0.77219   1.00
C4       0.68585    0.91484    0.91535   1.00
C4       0.64415    0.91516    0.91465   1.00
C3       0.70749    0.87970    0.91350   1.00
C3       0.62248    0.88979    0.89035   1.00
C3       0.70762    0.94991    0.91707   1.00
C3       0.62241    0.94042    0.93904   1.00
C2       0.77018    0.91485    0.91493   1.00
C2       0.55982    0.91485    0.91493   1.00
C3a      0.74901    0.87955    0.91330   1.00
C3       0.58118    0.88971    0.89053   1.00
C3       0.74889    0.94984    0.91686   1.00
C3a      0.58097    0.94043    0.93931   1.00
H1       0.69206    0.85217    0.91252   1.00
H1       0.63750    0.87008    0.87075   1.00
C5       0.77090    0.84154    0.91150   1.00
H1       0.56567    0.86987    0.87145   1.00
H1       0.76444    0.97732    0.91791   1.00
C5       0.55965    0.96810    0.96595   1.00
H1       0.63753    0.95964    0.95902   1.00
H1       0.69270    0.97774    0.91780   1.00
H2       0.56663    0.99849    0.95703   1.00
H2       0.52753    0.96448    0.96325   1.00
N1       0.57105    0.96157    1.00656   1.00
C6       0.60690    0.96670    1.02179   1.00
C6       0.54743    0.94970    1.03564   1.00
C6       0.60627    0.95782    1.06104   1.00
C6       0.56844    0.94700    1.06984   1.00
H3       0.63219    0.97635    1.00548   1.00
H3       0.51669    0.94321    1.03224   1.00
H3       0.63064    0.95914    1.08103   1.00
H3       0.55742    0.93817    1.09804   1.00
H2       0.80272    0.84776    0.91104   1.00
H2       0.76499    0.82337    0.93768   1.00
N1       0.75977    0.81969    0.87668   1.00
C6       0.78422    0.80815    0.84531   1.00
C6       0.72215    0.80522    0.86710   1.00
C6       0.76223    0.78787    0.81832   1.00
C6       0.72409    0.78609    0.83170   1.00
H3       0.81508    0.81447    0.84311   1.00
H3       0.69624    0.80911    0.88475   1.00
H3       0.77295    0.77556    0.79133   1.00
H3       0.69995    0.77219    0.81691   1.00
C4       1.14415    0.91484    0.91465   1.00
C4       1.18585    0.91516    0.91535   1.00
C3       1.12251    0.87970    0.91650   1.00
C3       1.20752    0.88979    0.93965   1.00
C3       1.12238    0.94991    0.91293   1.00
C3       1.20759    0.94042    0.89096   1.00
C2       1.05982    0.91485    0.91507   1.00
C2       1.27018    0.91485    0.91507   1.00
C3a      1.08099    0.87955    0.91670   1.00
C3       1.24882    0.88971    0.93947   1.00
C3       1.08111    0.94984    0.91314   1.00
C3a      1.24903    0.94043    0.89069   1.00
H1       1.13794    0.85217    0.91748   1.00
H1       1.19250    0.87008    0.95925   1.00
C5       1.05910    0.84154    0.91850   1.00
H1       1.26433    0.86987    0.95855   1.00
H1       1.06556    0.97732    0.91209   1.00
C5       1.27035    0.96810    0.86405   1.00
H1       1.19247    0.95964    0.87098   1.00
H1       1.13730    0.97774    0.91220   1.00
H2       1.26337    0.99849    0.87297   1.00
H2       1.30247    0.96448    0.86675   1.00
N1       1.25895    0.96157    0.82344   1.00
C6       1.22310    0.96670    0.80821   1.00
C6       1.28257    0.94970    0.79436   1.00
C6       1.22373    0.95782    0.76896   1.00
C6       1.26156    0.94700    0.76016   1.00
H3       1.19781    0.97635    0.82452   1.00
H3       1.31331    0.94321    0.79776   1.00
H3       1.19936    0.95914    0.74897   1.00
H3       1.27258    0.93817    0.73196   1.00
H2       1.02728    0.84776    0.91896   1.00
H2       1.06501    0.82337    0.89232   1.00
N1       1.07023    0.81969    0.95332   1.00
C6       1.04578    0.80815    0.98469   1.00
C6       1.10785    0.80522    0.96290   1.00
C6       1.06777    0.78787    1.01168   1.00
C6       1.10591    0.78609    0.99830   1.00
H3       1.01492    0.81447    0.98689   1.00
H3       1.13376    0.80911    0.94525   1.00
H3       1.05705    0.77556    1.03867   1.00
H3       1.13005    0.77219    1.01309   1.00
C4       0.91535    0.68585    0.91484   1.00
C4       0.91465    0.64415    0.91516   1.00
C3       0.91350    0.70749    0.87970   1.00
C3       0.89035    0.62248    0.88979   1.00
C3       0.91707    0.70762    0.94991   1.00
C3       0.93904    0.62241    0.94042   1.00
C2       0.91493    0.77018    0.91485   1.00
C2       0.91493    0.55982    0.91485   1.00
C3a      0.91330    0.74901    0.87955   1.00
C3       0.89053    0.58118    0.88971   1.00
C3       0.91686    0.74889    0.94984   1.00
C3a      0.93931    0.58097    0.94043   1.00
H1       0.91252    0.69206    0.85217   1.00
H1       0.87075    0.63750    0.87008   1.00
C5       0.91150    0.77090    0.84154   1.00
H1       0.87145    0.56567    0.86987   1.00
H1       0.91791    0.76444    0.97732   1.00
C5       0.96595    0.55965    0.96810   1.00
H1       0.95902    0.63753    0.95964   1.00
H1       0.91780    0.69270    0.97774   1.00
H2       0.95703    0.56663    0.99849   1.00
H2       0.96325    0.52753    0.96448   1.00
N1       1.00656    0.57105    0.96157   1.00
C6       1.02179    0.60690    0.96670   1.00
C6       1.03564    0.54743    0.94970   1.00
C6       1.06104    0.60627    0.95782   1.00
C6       1.06984    0.56844    0.94700   1.00
H3       1.00548    0.63219    0.97635   1.00
H3       1.03224    0.51669    0.94321   1.00
H3       1.08103    0.63064    0.95914   1.00
H3       1.09804    0.55742    0.93817   1.00
H2       0.91104    0.80272    0.84776   1.00
H2       0.93768    0.76499    0.82337   1.00
N1       0.87668    0.75977    0.81969   1.00
C6       0.84531    0.78422    0.80815   1.00
C6       0.86710    0.72215    0.80522   1.00
C6       0.81832    0.76223    0.78787   1.00
C6       0.83170    0.72409    0.78609   1.00
H3       0.84311    0.81508    0.81447   1.00
H3       0.88475    0.69624    0.80911   1.00
H3       0.79133    0.77295    0.77556   1.00
H3       0.81691    0.69995    0.77219   1.00
C4       0.91484    0.91535    0.68585   1.00
C4       0.91516    0.91465    0.64415   1.00
C3       0.87970    0.91350    0.70749   1.00
C3       0.88979    0.89035    0.62248   1.00
C3       0.94991    0.91707    0.70762   1.00
C3       0.94042    0.93904    0.62241   1.00
C2       0.91485    0.91493    0.77018   1.00
C2       0.91485    0.91493    0.55982   1.00
C3a      0.87955    0.91330    0.74901   1.00
C3       0.88971    0.89053    0.58118   1.00
C3       0.94984    0.91686    0.74889   1.00
C3a      0.94043    0.93931    0.58097   1.00
H1       0.85217    0.91252    0.69206   1.00
H1       0.87008    0.87075    0.63750   1.00
C5       0.84154    0.91150    0.77090   1.00
H1       0.86987    0.87145    0.56567   1.00
H1       0.97732    0.91791    0.76444   1.00
C5       0.96810    0.96595    0.55965   1.00
H1       0.95964    0.95902    0.63753   1.00
H1       0.97774    0.91780    0.69270   1.00
H2       0.99849    0.95703    0.56663   1.00
H2       0.96448    0.96325    0.52753   1.00
N1       0.96157    1.00656    0.57105   1.00
C6       0.96670    1.02179    0.60690   1.00
C6       0.94970    1.03564    0.54743   1.00
C6       0.95782    1.06104    0.60627   1.00
C6       0.94700    1.06984    0.56844   1.00
H3       0.97635    1.00548    0.63219   1.00
H3       0.94321    1.03224    0.51669   1.00
H3       0.95914    1.08103    0.63064   1.00
H3       0.93817    1.09804    0.55742   1.00
H2       0.84776    0.91104    0.80272   1.00
H2       0.82337    0.93768    0.76499   1.00
N1       0.81969    0.87668    0.75977   1.00
C6       0.80815    0.84531    0.78422   1.00
C6       0.80522    0.86710    0.72215   1.00
C6       0.78787    0.81832    0.76223   1.00
C6       0.78609    0.83170    0.72409   1.00
H3       0.81447    0.84311    0.81508   1.00
H3       0.80911    0.88475    0.69624   1.00
H3       0.77556    0.79133    0.77295   1.00
H3       0.77219    0.81691    0.69995   1.00
C4       0.41484    0.41465    1.14415   1.00
C4       0.41516    0.41535    1.18585   1.00
C3       0.37970    0.41650    1.12251   1.00
C3       0.38979    0.43965    1.20752   1.00
C3       0.44991    0.41293    1.12238   1.00
C3       0.44042    0.39096    1.20759   1.00
C2       0.41485    0.41507    1.05982   1.00
C2       0.41485    0.41507    1.27018   1.00
C3a      0.37955    0.41670    1.08099   1.00
C3       0.38971    0.43947    1.24882   1.00
C3       0.44984    0.41314    1.08111   1.00
C3a      0.44043    0.39069    1.24903   1.00
H1       0.35217    0.41748    1.13794   1.00
H1       0.37008    0.45925    1.19250   1.00
C5       0.34154    0.41850    1.05910   1.00
H1       0.36987    0.45855    1.26433   1.00
H1       0.47732    0.41209    1.06556   1.00
C5       0.46810    0.36405    1.27035   1.00
H1       0.45964    0.37098    1.19247   1.00
H1       0.47774    0.41220    1.13730   1.00
H2       0.49849    0.37297    1.26337   1.00
H2       0.46448    0.36675    1.30247   1.00
N1       0.46157    0.32344    1.25895   1.00
C6       0.46670    0.30821    1.22310   1.00
C6       0.44970    0.29436    1.28257   1.00
C6       0.45782    0.26896    1.22373   1.00
C6       0.44700    0.26016    1.26156   1.00
H3       0.47635    0.32452    1.19781   1.00
H3       0.44321    0.29776    1.31331   1.00
H3       0.45914    0.24897    1.19936   1.00
H3       0.43817    0.23196    1.27258   1.00
H2       0.34776    0.41896    1.02728   1.00
H2       0.32337    0.39232    1.06501   1.00
N1       0.31969    0.45332    1.07023   1.00
C6       0.30815    0.48469    1.04578   1.00
C6       0.30522    0.46290    1.10785   1.00
C6       0.28787    0.51168    1.06777   1.00
C6       0.28609    0.49830    1.10591   1.00
H3       0.31447    0.48689    1.01492   1.00
H3       0.30911    0.44525    1.13376   1.00
H3       0.27556    0.53867    1.05705   1.00
H3       0.27219    0.51309    1.13005   1.00
C4       0.41465    0.64415    0.91484   1.00
C4       0.41535    0.68585    0.91516   1.00
C3       0.41650    0.62251    0.87970   1.00
C3       0.43965    0.70752    0.88979   1.00
C3       0.41293    0.62238    0.94991   1.00
C3       0.39096    0.70759    0.94042   1.00
C2       0.41507    0.55982    0.91485   1.00
C2       0.41507    0.77018    0.91485   1.00
C3a      0.41670    0.58099    0.87955   1.00
C3       0.43947    0.74882    0.88971   1.00
C3       0.41314    0.58111    0.94984   1.00
C3a      0.39069    0.74903    0.94043   1.00
H1       0.41748    0.63794    0.85217   1.00
H1       0.45925    0.69250    0.87008   1.00
C5       0.41850    0.55910    0.84154   1.00
H1       0.45855    0.76433    0.86987   1.00
H1       0.41209    0.56556    0.97732   1.00
C5       0.36405    0.77035    0.96810   1.00
H1       0.37098    0.69247    0.95964   1.00
H1       0.41220    0.63730    0.97774   1.00
H2       0.37297    0.76337    0.99849   1.00
H2       0.36675    0.80247    0.96448   1.00
N1       0.32344    0.75895    0.96157   1.00
C6       0.30821    0.72310    0.96670   1.00
C6       0.29436    0.78257    0.94970   1.00
C6       0.26896    0.72373    0.95782   1.00
C6       0.26016    0.76156    0.94700   1.00
H3       0.32452    0.69781    0.97635   1.00
H3       0.29776    0.81331    0.94321   1.00
H3       0.24897    0.69936    0.95914   1.00
H3       0.23196    0.77258    0.93817   1.00
H2       0.41896    0.52728    0.84776   1.00
H2       0.39232    0.56501    0.82337   1.00
N1       0.45332    0.57023    0.81969   1.00
C6       0.48469    0.54578    0.80815   1.00
C6       0.46290    0.60785    0.80522   1.00
C6       0.51168    0.56777    0.78787   1.00
C6       0.49830    0.60591    0.78609   1.00
H3       0.48689    0.51492    0.81447   1.00
H3       0.44525    0.63376    0.80911   1.00
H3       0.53867    0.55705    0.77556   1.00
H3       0.51309    0.63005    0.77219   1.00
C4       0.18585    0.41484    0.91535   1.00
C4       0.14415    0.41516    0.91465   1.00
C3       0.20749    0.37970    0.91350   1.00
C3       0.12248    0.38979    0.89035   1.00
C3       0.20762    0.44991    0.91707   1.00
C3       0.12241    0.44042    0.93904   1.00
C2       0.27018    0.41485    0.91493   1.00
C2       0.05982    0.41485    0.91493   1.00
C3a      0.24901    0.37955    0.91330   1.00
C3       0.08118    0.38971    0.89053   1.00
C3       0.24889    0.44984    0.91686   1.00
C3a      0.08097    0.44043    0.93931   1.00
H1       0.19206    0.35217    0.91252   1.00
H1       0.13750    0.37008    0.87075   1.00
C5       0.27090    0.34154    0.91150   1.00
H1       0.06567    0.36987    0.87145   1.00
H1       0.26444    0.47732    0.91791   1.00
C5       0.05965    0.46810    0.96595   1.00
H1       0.13753    0.45964    0.95902   1.00
H1       0.19270    0.47774    0.91780   1.00
H2       0.06663    0.49849    0.95703   1.00
H2       0.02753    0.46448    0.96325   1.00
N1       0.07105    0.46157    1.00656   1.00
C6       0.10690    0.46670    1.02179   1.00
C6       0.04743    0.44970    1.03564   1.00
C6       0.10627    0.45782    1.06104   1.00
C6       0.06844    0.44700    1.06984   1.00
H3       0.13219    0.47635    1.00548   1.00
H3       0.01669    0.44321    1.03224   1.00
H3       0.13064    0.45914    1.08103   1.00
H3       0.05742    0.43817    1.09804   1.00
H2       0.30272    0.34776    0.91104   1.00
H2       0.26499    0.32337    0.93768   1.00
N1       0.25977    0.31969    0.87668   1.00
C6       0.28422    0.30815    0.84531   1.00
C6       0.22215    0.30522    0.86710   1.00
C6       0.26223    0.28787    0.81832   1.00
C6       0.22409    0.28609    0.83170   1.00
H3       0.31508    0.31447    0.84311   1.00
H3       0.19624    0.30911    0.88475   1.00
H3       0.27295    0.27556    0.79133   1.00
H3       0.19995    0.27219    0.81691   1.00
C4       0.64415    0.41484    0.91465   1.00
C4       0.68585    0.41516    0.91535   1.00
C3       0.62251    0.37970    0.91650   1.00
C3       0.70752    0.38979    0.93965   1.00
C3       0.62238    0.44991    0.91293   1.00
C3       0.70759    0.44042    0.89096   1.00
C2       0.55982    0.41485    0.91507   1.00
C2       0.77018    0.41485    0.91507   1.00
C3a      0.58099    0.37955    0.91670   1.00
C3       0.74882    0.38971    0.93947   1.00
C3       0.58111    0.44984    0.91314   1.00
C3a      0.74903    0.44043    0.89069   1.00
H1       0.63794    0.35217    0.91748   1.00
H1       0.69250    0.37008    0.95925   1.00
C5       0.55910    0.34154    0.91850   1.00
H1       0.76433    0.36987    0.95855   1.00
H1       0.56556    0.47732    0.91209   1.00
C5       0.77035    0.46810    0.86405   1.00
H1       0.69247    0.45964    0.87098   1.00
H1       0.63730    0.47774    0.91220   1.00
H2       0.76337    0.49849    0.87297   1.00
H2       0.80247    0.46448    0.86675   1.00
N1       0.75895    0.46157    0.82344   1.00
C6       0.72310    0.46670    0.80821   1.00
C6       0.78257    0.44970    0.79436   1.00
C6       0.72373    0.45782    0.76896   1.00
C6       0.76156    0.44700    0.76016   1.00
H3       0.69781    0.47635    0.82452   1.00
H3       0.81331    0.44321    0.79776   1.00
H3       0.69936    0.45914    0.74897   1.00
H3       0.77258    0.43817    0.73196   1.00
H2       0.52728    0.34776    0.91896   1.00
H2       0.56501    0.32337    0.89232   1.00
N1       0.57023    0.31969    0.95332   1.00
C6       0.54578    0.30815    0.98469   1.00
C6       0.60785    0.30522    0.96290   1.00
C6       0.56777    0.28787    1.01168   1.00
C6       0.60591    0.28609    0.99830   1.00
H3       0.51492    0.31447    0.98689   1.00
H3       0.63376    0.30911    0.94525   1.00
H3       0.55705    0.27556    1.03867   1.00
H3       0.63005    0.27219    1.01309   1.00
C4       0.41535    0.18585    0.91484   1.00
C4       0.41465    0.14415    0.91516   1.00
C3       0.41350    0.20749    0.87970   1.00
C3       0.39035    0.12248    0.88979   1.00
C3       0.41707    0.20762    0.94991   1.00
C3       0.43904    0.12241    0.94042   1.00
C2       0.41493    0.27018    0.91485   1.00
C2       0.41493    0.05982    0.91485   1.00
C3a      0.41330    0.24901    0.87955   1.00
C3       0.39053    0.08118    0.88971   1.00
C3       0.41686    0.24889    0.94984   1.00
C3a      0.43931    0.08097    0.94043   1.00
H1       0.41252    0.19206    0.85217   1.00
H1       0.37075    0.13750    0.87008   1.00
C5       0.41150    0.27090    0.84154   1.00
H1       0.37145    0.06567    0.86987   1.00
H1       0.41791    0.26444    0.97732   1.00
C5       0.46595    0.05965    0.96810   1.00
H1       0.45902    0.13753    0.95964   1.00
H1       0.41780    0.19270    0.97774   1.00
H2       0.45703    0.06663    0.99849   1.00
H2       0.46325    0.02753    0.96448   1.00
N1       0.50656    0.07105    0.96157   1.00
C6       0.52179    0.10690    0.96670   1.00
C6       0.53564    0.04743    0.94970   1.00
C6       0.56104    0.10627    0.95782   1.00
C6       0.56984    0.06844    0.94700   1.00
H3       0.50548    0.13219    0.97635   1.00
H3       0.53224    0.01669    0.94321   1.00
H3       0.58103    0.13064    0.95914   1.00
H3       0.59804    0.05742    0.93817   1.00
H2       0.41104    0.30272    0.84776   1.00
H2       0.43768    0.26499    0.82337   1.00
N1       0.37668    0.25977    0.81969   1.00
C6       0.34531    0.28422    0.80815   1.00
C6       0.36710    0.22215    0.80522   1.00
C6       0.31832    0.26223    0.78787   1.00
C6       0.33170    0.22409    0.78609   1.00
H3       0.34311    0.31508    0.81447   1.00
H3       0.38475    0.19624    0.80911   1.00
H3       0.29133    0.27295    0.77556   1.00
H3       0.31691    0.19995    0.77219   1.00
C4       0.41484    0.41535    0.68585   1.00
C4       0.41516    0.41465    0.64415   1.00
C3       0.37970    0.41350    0.70749   1.00
C3       0.38979    0.39035    0.62248   1.00
C3       0.44991    0.41707    0.70762   1.00
C3       0.44042    0.43904    0.62241   1.00
C2       0.41485    0.41493    0.77018   1.00
C2       0.41485    0.41493    0.55982   1.00
C3a      0.37955    0.41330    0.74901   1.00
C3       0.38971    0.39053    0.58118   1.00
C3       0.44984    0.41686    0.74889   1.00
C3a      0.44043    0.43931    0.58097   1.00
H1       0.35217    0.41252    0.69206   1.00
H1       0.37008    0.37075    0.63750   1.00
C5       0.34154    0.41150    0.77090   1.00
H1       0.36987    0.37145    0.56567   1.00
H1       0.47732    0.41791    0.76444   1.00
C5       0.46810    0.46595    0.55965   1.00
H1       0.45964    0.45902    0.63753   1.00
H1       0.47774    0.41780    0.69270   1.00
H2       0.49849    0.45703    0.56663   1.00
H2       0.46448    0.46325    0.52753   1.00
N1       0.46157    0.50656    0.57105   1.00
C6       0.46670    0.52179    0.60690   1.00
C6       0.44970    0.53564    0.54743   1.00
C6       0.45782    0.56104    0.60627   1.00
C6       0.44700    0.56984    0.56844   1.00
H3       0.47635    0.50548    0.63219   1.00
H3       0.44321    0.53224    0.51669   1.00
H3       0.45914    0.58103    0.63064   1.00
H3       0.43817    0.59804    0.55742   1.00
H2       0.34776    0.41104    0.80272   1.00
H2       0.32337    0.43768    0.76499   1.00
N1       0.31969    0.37668    0.75977   1.00
C6       0.30815    0.34531    0.78422   1.00
C6       0.30522    0.36710    0.72215   1.00
C6       0.28787    0.31832    0.76223   1.00
C6       0.28609    0.33170    0.72409   1.00
H3       0.31447    0.34311    0.81508   1.00
H3       0.30911    0.38475    0.69624   1.00
H3       0.27556    0.29133    0.77295   1.00
H3       0.27219    0.31691    0.69995   1.00
C4       0.41484    0.91465    0.64415   1.00
C4       0.41516    0.91535    0.68585   1.00
C3       0.37970    0.91650    0.62251   1.00
C3       0.38979    0.93965    0.70752   1.00
C3       0.44991    0.91293    0.62238   1.00
C3       0.44042    0.89096    0.70759   1.00
C2       0.41485    0.91507    0.55982   1.00
C2       0.41485    0.91507    0.77018   1.00
C3a      0.37955    0.91670    0.58099   1.00
C3       0.38971    0.93947    0.74882   1.00
C3       0.44984    0.91314    0.58111   1.00
C3a      0.44043    0.89069    0.74903   1.00
H1       0.35217    0.91748    0.63794   1.00
H1       0.37008    0.95925    0.69250   1.00
C5       0.34154    0.91850    0.55910   1.00
H1       0.36987    0.95855    0.76433   1.00
H1       0.47732    0.91209    0.56556   1.00
C5       0.46810    0.86405    0.77035   1.00
H1       0.45964    0.87098    0.69247   1.00
H1       0.47774    0.91220    0.63730   1.00
H2       0.49849    0.87297    0.76337   1.00
H2       0.46448    0.86675    0.80247   1.00
N1       0.46157    0.82344    0.75895   1.00
C6       0.46670    0.80821    0.72310   1.00
C6       0.44970    0.79436    0.78257   1.00
C6       0.45782    0.76896    0.72373   1.00
C6       0.44700    0.76016    0.76156   1.00
H3       0.47635    0.82452    0.69781   1.00
H3       0.44321    0.79776    0.81331   1.00
H3       0.45914    0.74897    0.69936   1.00
H3       0.43817    0.73196    0.77258   1.00
H2       0.34776    0.91896    0.52728   1.00
H2       0.32337    0.89232    0.56501   1.00
N1       0.31969    0.95332    0.57023   1.00
C6       0.30815    0.98469    0.54578   1.00
C6       0.30522    0.96290    0.60785   1.00
C6       0.28787    1.01168    0.56777   1.00
C6       0.28609    0.99830    0.60591   1.00
H3       0.31447    0.98689    0.51492   1.00
H3       0.30911    0.94525    0.63376   1.00
H3       0.27556    1.03867    0.55705   1.00
H3       0.27219    1.01309    0.63005   1.00
C4       0.41465    1.14415    0.41484   1.00
C4       0.41535    1.18585    0.41516   1.00
C3       0.41650    1.12251    0.37970   1.00
C3       0.43965    1.20752    0.38979   1.00
C3       0.41293    1.12238    0.44991   1.00
C3       0.39096    1.20759    0.44042   1.00
C2       0.41507    1.05982    0.41485   1.00
C2       0.41507    1.27018    0.41485   1.00
C3a      0.41670    1.08099    0.37955   1.00
C3       0.43947    1.24882    0.38971   1.00
C3       0.41314    1.08111    0.44984   1.00
C3a      0.39069    1.24903    0.44043   1.00
H1       0.41748    1.13794    0.35217   1.00
H1       0.45925    1.19250    0.37008   1.00
C5       0.41850    1.05910    0.34154   1.00
H1       0.45855    1.26433    0.36987   1.00
H1       0.41209    1.06556    0.47732   1.00
C5       0.36405    1.27035    0.46810   1.00
H1       0.37098    1.19247    0.45964   1.00
H1       0.41220    1.13730    0.47774   1.00
H2       0.37297    1.26337    0.49849   1.00
H2       0.36675    1.30247    0.46448   1.00
N1       0.32344    1.25895    0.46157   1.00
C6       0.30821    1.22310    0.46670   1.00
C6       0.29436    1.28257    0.44970   1.00
C6       0.26896    1.22373    0.45782   1.00
C6       0.26016    1.26156    0.44700   1.00
H3       0.32452    1.19781    0.47635   1.00
H3       0.29776    1.31331    0.44321   1.00
H3       0.24897    1.19936    0.45914   1.00
H3       0.23196    1.27258    0.43817   1.00
H2       0.41896    1.02728    0.34776   1.00
H2       0.39232    1.06501    0.32337   1.00
N1       0.45332    1.07023    0.31969   1.00
C6       0.48469    1.04578    0.30815   1.00
C6       0.46290    1.10785    0.30522   1.00
C6       0.51168    1.06777    0.28787   1.00
C6       0.49830    1.10591    0.28609   1.00
H3       0.48689    1.01492    0.31447   1.00
H3       0.44525    1.13376    0.30911   1.00
H3       0.53867    1.05705    0.27556   1.00
H3       0.51309    1.13005    0.27219   1.00
C4       0.18585    0.91484    0.41535   1.00
C4       0.14415    0.91516    0.41465   1.00
C3       0.20749    0.87970    0.41350   1.00
C3       0.12248    0.88979    0.39035   1.00
C3       0.20762    0.94991    0.41707   1.00
C3       0.12241    0.94042    0.43904   1.00
C2       0.27018    0.91485    0.41493   1.00
C2       0.05982    0.91485    0.41493   1.00
C3a      0.24901    0.87955    0.41330   1.00
C3       0.08118    0.88971    0.39053   1.00
C3       0.24889    0.94984    0.41686   1.00
C3a      0.08097    0.94043    0.43931   1.00
H1       0.19206    0.85217    0.41252   1.00
H1       0.13750    0.87008    0.37075   1.00
C5       0.27090    0.84154    0.41150   1.00
H1       0.06567    0.86987    0.37145   1.00
H1       0.26444    0.97732    0.41791   1.00
C5       0.05965    0.96810    0.46595   1.00
H1       0.13753    0.95964    0.45902   1.00
H1       0.19270    0.97774    0.41780   1.00
H2       0.06663    0.99849    0.45703   1.00
H2       0.02753    0.96448    0.46325   1.00
N1       0.07105    0.96157    0.50656   1.00
C6       0.10690    0.96670    0.52179   1.00
C6       0.04743    0.94970    0.53564   1.00
C6       0.10627    0.95782    0.56104   1.00
C6       0.06844    0.94700    0.56984   1.00
H3       0.13219    0.97635    0.50548   1.00
H3       0.01669    0.94321    0.53224   1.00
H3       0.13064    0.95914    0.58103   1.00
H3       0.05742    0.93817    0.59804   1.00
H2       0.30272    0.84776    0.41104   1.00
H2       0.26499    0.82337    0.43768   1.00
N1       0.25977    0.81969    0.37668   1.00
C6       0.28422    0.80815    0.34531   1.00
C6       0.22215    0.80522    0.36710   1.00
C6       0.26223    0.78787    0.31832   1.00
C6       0.22409    0.78609    0.33170   1.00
H3       0.31508    0.81447    0.34311   1.00
H3       0.19624    0.80911    0.38475   1.00
H3       0.27295    0.77556    0.29133   1.00
H3       0.19995    0.77219    0.31691   1.00
C4       0.64415    0.91484    0.41465   1.00
C4       0.68585    0.91516    0.41535   1.00
C3       0.62251    0.87970    0.41650   1.00
C3       0.70752    0.88979    0.43965   1.00
C3       0.62238    0.94991    0.41293   1.00
C3       0.70759    0.94042    0.39096   1.00
C2       0.55982    0.91485    0.41507   1.00
C2       0.77018    0.91485    0.41507   1.00
C3a      0.58099    0.87955    0.41670   1.00
C3       0.74882    0.88971    0.43947   1.00
C3       0.58111    0.94984    0.41314   1.00
C3a      0.74903    0.94043    0.39069   1.00
H1       0.63794    0.85217    0.41748   1.00
H1       0.69250    0.87008    0.45925   1.00
C5       0.55910    0.84154    0.41850   1.00
H1       0.76433    0.86987    0.45855   1.00
H1       0.56556    0.97732    0.41209   1.00
C5       0.77035    0.96810    0.36405   1.00
H1       0.69247    0.95964    0.37098   1.00
H1       0.63730    0.97774    0.41220   1.00
H2       0.76337    0.99849    0.37297   1.00
H2       0.80247    0.96448    0.36675   1.00
N1       0.75895    0.96157    0.32344   1.00
C6       0.72310    0.96670    0.30821   1.00
C6       0.78257    0.94970    0.29436   1.00
C6       0.72373    0.95782    0.26896   1.00
C6       0.76156    0.94700    0.26016   1.00
H3       0.69781    0.97635    0.32452   1.00
H3       0.81331    0.94321    0.29776   1.00
H3       0.69936    0.95914    0.24897   1.00
H3       0.77258    0.93817    0.23196   1.00
H2       0.52728    0.84776    0.41896   1.00
H2       0.56501    0.82337    0.39232   1.00
N1       0.57023    0.81969    0.45332   1.00
C6       0.54578    0.80815    0.48469   1.00
C6       0.60785    0.80522    0.46290   1.00
C6       0.56777    0.78787    0.51168   1.00
C6       0.60591    0.78609    0.49830   1.00
H3       0.51492    0.81447    0.48689   1.00
H3       0.63376    0.80911    0.44525   1.00
H3       0.55705    0.77556    0.53867   1.00
H3       0.63005    0.77219    0.51309   1.00
C4       0.41535    0.68585    0.41484   1.00
C4       0.41465    0.64415    0.41516   1.00
C3       0.41350    0.70749    0.37970   1.00
C3       0.39035    0.62248    0.38979   1.00
C3       0.41707    0.70762    0.44991   1.00
C3       0.43904    0.62241    0.44042   1.00
C2       0.41493    0.77018    0.41485   1.00
C2       0.41493    0.55982    0.41485   1.00
C3a      0.41330    0.74901    0.37955   1.00
C3       0.39053    0.58118    0.38971   1.00
C3       0.41686    0.74889    0.44984   1.00
C3a      0.43931    0.58097    0.44043   1.00
H1       0.41252    0.69206    0.35217   1.00
H1       0.37075    0.63750    0.37008   1.00
C5       0.41150    0.77090    0.34154   1.00
H1       0.37145    0.56567    0.36987   1.00
H1       0.41791    0.76444    0.47732   1.00
C5       0.46595    0.55965    0.46810   1.00
H1       0.45902    0.63753    0.45964   1.00
H1       0.41780    0.69270    0.47774   1.00
H2       0.45703    0.56663    0.49849   1.00
H2       0.46325    0.52753    0.46448   1.00
N1       0.50656    0.57105    0.46157   1.00
C6       0.52179    0.60690    0.46670   1.00
C6       0.53564    0.54743    0.44970   1.00
C6       0.56104    0.60627    0.45782   1.00
C6       0.56984    0.56844    0.44700   1.00
H3       0.50548    0.63219    0.47635   1.00
H3       0.53224    0.51669    0.44321   1.00
H3       0.58103    0.63064    0.45914   1.00
H3       0.59804    0.55742    0.43817   1.00
H2       0.41104    0.80272    0.34776   1.00
H2       0.43768    0.76499    0.32337   1.00
N1       0.37668    0.75977    0.31969   1.00
C6       0.34531    0.78422    0.30815   1.00
C6       0.36710    0.72215    0.30522   1.00
C6       0.31832    0.76223    0.28787   1.00
C6       0.33170    0.72409    0.28609   1.00
H3       0.34311    0.81508    0.31447   1.00
H3       0.38475    0.69624    0.30911   1.00
H3       0.29133    0.77295    0.27556   1.00
H3       0.31691    0.69995    0.27219   1.00
C4       0.41484    0.91535    0.18585   1.00
C4       0.41516    0.91465    0.14415   1.00
C3       0.37970    0.91350    0.20749   1.00
C3       0.38979    0.89035    0.12248   1.00
C3       0.44991    0.91707    0.20762   1.00
C3       0.44042    0.93904    0.12241   1.00
C2       0.41485    0.91493    0.27018   1.00
C2       0.41485    0.91493    0.05982   1.00
C3a      0.37955    0.91330    0.24901   1.00
C3       0.38971    0.89053    0.08118   1.00
C3       0.44984    0.91686    0.24889   1.00
C3a      0.44043    0.93931    0.08097   1.00
H1       0.35217    0.91252    0.19206   1.00
H1       0.37008    0.87075    0.13750   1.00
C5       0.34154    0.91150    0.27090   1.00
H1       0.36987    0.87145    0.06567   1.00
H1       0.47732    0.91791    0.26444   1.00
C5       0.46810    0.96595    0.05965   1.00
H1       0.45964    0.95902    0.13753   1.00
H1       0.47774    0.91780    0.19270   1.00
H2       0.49849    0.95703    0.06663   1.00
H2       0.46448    0.96325    0.02753   1.00
N1       0.46157    1.00656    0.07105   1.00
C6       0.46670    1.02179    0.10690   1.00
C6       0.44970    1.03564    0.04743   1.00
C6       0.45782    1.06104    0.10627   1.00
C6       0.44700    1.06984    0.06844   1.00
H3       0.47635    1.00548    0.13219   1.00
H3       0.44321    1.03224    0.01669   1.00
H3       0.45914    1.08103    0.13064   1.00
H3       0.43817    1.09804    0.05742   1.00
H2       0.34776    0.91104    0.30272   1.00
H2       0.32337    0.93768    0.26499   1.00
N1       0.31969    0.87668    0.25977   1.00
C6       0.30815    0.84531    0.28422   1.00
C6       0.30522    0.86710    0.22215   1.00
C6       0.28787    0.81832    0.26223   1.00
C6       0.28609    0.83170    0.22409   1.00
H3       0.31447    0.84311    0.31508   1.00
H3       0.30911    0.88475    0.19624   1.00
H3       0.27556    0.79133    0.27295   1.00
H3       0.27219    0.81691    0.19995   1.00
C4       0.91484    0.41465    0.64415   1.00
C4       0.91516    0.41535    0.68585   1.00
C3       0.87970    0.41650    0.62251   1.00
C3       0.88979    0.43965    0.70752   1.00
C3       0.94991    0.41293    0.62238   1.00
C3       0.94042    0.39096    0.70759   1.00
C2       0.91485    0.41507    0.55982   1.00
C2       0.91485    0.41507    0.77018   1.00
C3a      0.87955    0.41670    0.58099   1.00
C3       0.88971    0.43947    0.74882   1.00
C3       0.94984    0.41314    0.58111   1.00
C3a      0.94043    0.39069    0.74903   1.00
H1       0.85217    0.41748    0.63794   1.00
H1       0.87008    0.45925    0.69250   1.00
C5       0.84154    0.41850    0.55910   1.00
H1       0.86987    0.45855    0.76433   1.00
H1       0.97732    0.41209    0.56556   1.00
C5       0.96810    0.36405    0.77035   1.00
H1       0.95964    0.37098    0.69247   1.00
H1       0.97774    0.41220    0.63730   1.00
H2       0.99849    0.37297    0.76337   1.00
H2       0.96448    0.36675    0.80247   1.00
N1       0.96157    0.32344    0.75895   1.00
C6       0.96670    0.30821    0.72310   1.00
C6       0.94970    0.29436    0.78257   1.00
C6       0.95782    0.26896    0.72373   1.00
C6       0.94700    0.26016    0.76156   1.00
H3       0.97635    0.32452    0.69781   1.00
H3       0.94321    0.29776    0.81331   1.00
H3       0.95914    0.24897    0.69936   1.00
H3       0.93817    0.23196    0.77258   1.00
H2       0.84776    0.41896    0.52728   1.00
H2       0.82337    0.39232    0.56501   1.00
N1       0.81969    0.45332    0.57023   1.00
C6       0.80815    0.48469    0.54578   1.00
C6       0.80522    0.46290    0.60785   1.00
C6       0.78787    0.51168    0.56777   1.00
C6       0.78609    0.49830    0.60591   1.00
H3       0.81447    0.48689    0.51492   1.00
H3       0.80911    0.44525    0.63376   1.00
H3       0.77556    0.53867    0.55705   1.00
H3       0.77219    0.51309    0.63005   1.00
C4       0.91465    0.64415    0.41484   1.00
C4       0.91535    0.68585    0.41516   1.00
C3       0.91650    0.62251    0.37970   1.00
C3       0.93965    0.70752    0.38979   1.00
C3       0.91293    0.62238    0.44991   1.00
C3       0.89096    0.70759    0.44042   1.00
C2       0.91507    0.55982    0.41485   1.00
C2       0.91507    0.77018    0.41485   1.00
C3a      0.91670    0.58099    0.37955   1.00
C3       0.93947    0.74882    0.38971   1.00
C3       0.91314    0.58111    0.44984   1.00
C3a      0.89069    0.74903    0.44043   1.00
H1       0.91748    0.63794    0.35217   1.00
H1       0.95925    0.69250    0.37008   1.00
C5       0.91850    0.55910    0.34154   1.00
H1       0.95855    0.76433    0.36987   1.00
H1       0.91209    0.56556    0.47732   1.00
C5       0.86405    0.77035    0.46810   1.00
H1       0.87098    0.69247    0.45964   1.00
H1       0.91220    0.63730    0.47774   1.00
H2       0.87297    0.76337    0.49849   1.00
H2       0.86675    0.80247    0.46448   1.00
N1       0.82344    0.75895    0.46157   1.00
C6       0.80821    0.72310    0.46670   1.00
C6       0.79436    0.78257    0.44970   1.00
C6       0.76896    0.72373    0.45782   1.00
C6       0.76016    0.76156    0.44700   1.00
H3       0.82452    0.69781    0.47635   1.00
H3       0.79776    0.81331    0.44321   1.00
H3       0.74897    0.69936    0.45914   1.00
H3       0.73196    0.77258    0.43817   1.00
H2       0.91896    0.52728    0.34776   1.00
H2       0.89232    0.56501    0.32337   1.00
N1       0.95332    0.57023    0.31969   1.00
C6       0.98469    0.54578    0.30815   1.00
C6       0.96290    0.60785    0.30522   1.00
C6       1.01168    0.56777    0.28787   1.00
C6       0.99830    0.60591    0.28609   1.00
H3       0.98689    0.51492    0.31447   1.00
H3       0.94525    0.63376    0.30911   1.00
H3       1.03867    0.55705    0.27556   1.00
H3       1.01309    0.63005    0.27219   1.00
C4       0.68585    0.41484    0.41535   1.00
C4       0.64415    0.41516    0.41465   1.00
C3       0.70749    0.37970    0.41350   1.00
C3       0.62248    0.38979    0.39035   1.00
C3       0.70762    0.44991    0.41707   1.00
C3       0.62241    0.44042    0.43904   1.00
C2       0.77018    0.41485    0.41493   1.00
C2       0.55982    0.41485    0.41493   1.00
C3a      0.74901    0.37955    0.41330   1.00
C3       0.58118    0.38971    0.39053   1.00
C3       0.74889    0.44984    0.41686   1.00
C3a      0.58097    0.44043    0.43931   1.00
H1       0.69206    0.35217    0.41252   1.00
H1       0.63750    0.37008    0.37075   1.00
C5       0.77090    0.34154    0.41150   1.00
H1       0.56567    0.36987    0.37145   1.00
H1       0.76444    0.47732    0.41791   1.00
C5       0.55965    0.46810    0.46595   1.00
H1       0.63753    0.45964    0.45902   1.00
H1       0.69270    0.47774    0.41780   1.00
H2       0.56663    0.49849    0.45703   1.00
H2       0.52753    0.46448    0.46325   1.00
N1       0.57105    0.46157    0.50656   1.00
C6       0.60690    0.46670    0.52179   1.00
C6       0.54743    0.44970    0.53564   1.00
C6       0.60627    0.45782    0.56104   1.00
C6       0.56844    0.44700    0.56984   1.00
H3       0.63219    0.47635    0.50548   1.00
H3       0.51669    0.44321    0.53224   1.00
H3       0.63064    0.45914    0.58103   1.00
H3       0.55742    0.43817    0.59804   1.00
H2       0.80272    0.34776    0.41104   1.00
H2       0.76499    0.32337    0.43768   1.00
N1       0.75977    0.31969    0.37668   1.00
C6       0.78422    0.30815    0.34531   1.00
C6       0.72215    0.30522    0.36710   1.00
C6       0.76223    0.28787    0.31832   1.00
C6       0.72409    0.28609    0.33170   1.00
H3       0.81508    0.31447    0.34311   1.00
H3       0.69624    0.30911    0.38475   1.00
H3       0.77295    0.27556    0.29133   1.00
H3       0.69995    0.27219    0.31691   1.00
C4       1.14415    0.41484    0.41465   1.00
C4       1.18585    0.41516    0.41535   1.00
C3       1.12251    0.37970    0.41650   1.00
C3       1.20752    0.38979    0.43965   1.00
C3       1.12238    0.44991    0.41293   1.00
C3       1.20759    0.44042    0.39096   1.00
C2       1.05982    0.41485    0.41507   1.00
C2       1.27018    0.41485    0.41507   1.00
C3a      1.08099    0.37955    0.41670   1.00
C3       1.24882    0.38971    0.43947   1.00
C3       1.08111    0.44984    0.41314   1.00
C3a      1.24903    0.44043    0.39069   1.00
H1       1.13794    0.35217    0.41748   1.00
H1       1.19250    0.37008    0.45925   1.00
C5       1.05910    0.34154    0.41850   1.00
H1       1.26433    0.36987    0.45855   1.00
H1       1.06556    0.47732    0.41209   1.00
C5       1.27035    0.46810    0.36405   1.00
H1       1.19247    0.45964    0.37098   1.00
H1       1.13730    0.47774    0.41220   1.00
H2       1.26337    0.49849    0.37297   1.00
H2       1.30247    0.46448    0.36675   1.00
N1       1.25895    0.46157    0.32344   1.00
C6       1.22310    0.46670    0.30821   1.00
C6       1.28257    0.44970    0.29436   1.00
C6       1.22373    0.45782    0.26896   1.00
C6       1.26156    0.44700    0.26016   1.00
H3       1.19781    0.47635    0.32452   1.00
H3       1.31331    0.44321    0.29776   1.00
H3       1.19936    0.45914    0.24897   1.00
H3       1.27258    0.43817    0.23196   1.00
H2       1.02728    0.34776    0.41896   1.00
H2       1.06501    0.32337    0.39232   1.00
N1       1.07023    0.31969    0.45332   1.00
C6       1.04578    0.30815    0.48469   1.00
C6       1.10785    0.30522    0.46290   1.00
C6       1.06777    0.28787    0.51168   1.00
C6       1.10591    0.28609    0.49830   1.00
H3       1.01492    0.31447    0.48689   1.00
H3       1.13376    0.30911    0.44525   1.00
H3       1.05705    0.27556    0.53867   1.00
H3       1.13005    0.27219    0.51309   1.00
C4       0.91535    0.18585    0.41484   1.00
C4       0.91465    0.14415    0.41516   1.00
C3       0.91350    0.20749    0.37970   1.00
C3       0.89035    0.12248    0.38979   1.00
C3       0.91707    0.20762    0.44991   1.00
C3       0.93904    0.12241    0.44042   1.00
C2       0.91493    0.27018    0.41485   1.00
C2       0.91493    0.05982    0.41485   1.00
C3a      0.91330    0.24901    0.37955   1.00
C3       0.89053    0.08118    0.38971   1.00
C3       0.91686    0.24889    0.44984   1.00
C3a      0.93931    0.08097    0.44043   1.00
H1       0.91252    0.19206    0.35217   1.00
H1       0.87075    0.13750    0.37008   1.00
C5       0.91150    0.27090    0.34154   1.00
H1       0.87145    0.06567    0.36987   1.00
H1       0.91791    0.26444    0.47732   1.00
C5       0.96595    0.05965    0.46810   1.00
H1       0.95902    0.13753    0.45964   1.00
H1       0.91780    0.19270    0.47774   1.00
H2       0.95703    0.06663    0.49849   1.00
H2       0.96325    0.02753    0.46448   1.00
N1       1.00656    0.07105    0.46157   1.00
C6       1.02179    0.10690    0.46670   1.00
C6       1.03564    0.04743    0.44970   1.00
C6       1.06104    0.10627    0.45782   1.00
C6       1.06984    0.06844    0.44700   1.00
H3       1.00548    0.13219    0.47635   1.00
H3       1.03224    0.01669    0.44321   1.00
H3       1.08103    0.13064    0.45914   1.00
H3       1.09804    0.05742    0.43817   1.00
H2       0.91104    0.30272    0.34776   1.00
H2       0.93768    0.26499    0.32337   1.00
N1       0.87668    0.25977    0.31969   1.00
C6       0.84531    0.28422    0.30815   1.00
C6       0.86710    0.22215    0.30522   1.00
C6       0.81832    0.26223    0.28787   1.00
C6       0.83170    0.22409    0.28609   1.00
H3       0.84311    0.31508    0.31447   1.00
H3       0.88475    0.19624    0.30911   1.00
H3       0.79133    0.27295    0.27556   1.00
H3       0.81691    0.19995    0.27219   1.00
C4       0.91484    0.41535    0.18585   1.00
C4       0.91516    0.41465    0.14415   1.00
C3       0.87970    0.41350    0.20749   1.00
C3       0.88979    0.39035    0.12248   1.00
C3       0.94991    0.41707    0.20762   1.00
C3       0.94042    0.43904    0.12241   1.00
C2       0.91485    0.41493    0.27018   1.00
C2       0.91485    0.41493    0.05982   1.00
C3a      0.87955    0.41330    0.24901   1.00
C3       0.88971    0.39053    0.08118   1.00
C3       0.94984    0.41686    0.24889   1.00
C3a      0.94043    0.43931    0.08097   1.00
H1       0.85217    0.41252    0.19206   1.00
H1       0.87008    0.37075    0.13750   1.00
C5       0.84154    0.41150    0.27090   1.00
H1       0.86987    0.37145    0.06567   1.00
H1       0.97732    0.41791    0.26444   1.00
C5       0.96810    0.46595    0.05965   1.00
H1       0.95964    0.45902    0.13753   1.00
H1       0.97774    0.41780    0.19270   1.00
H2       0.99849    0.45703    0.06663   1.00
H2       0.96448    0.46325    0.02753   1.00
N1       0.96157    0.50656    0.07105   1.00
C6       0.96670    0.52179    0.10690   1.00
C6       0.94970    0.53564    0.04743   1.00
C6       0.95782    0.56104    0.10627   1.00
C6       0.94700    0.56984    0.06844   1.00
H3       0.97635    0.50548    0.13219   1.00
H3       0.94321    0.53224    0.01669   1.00
H3       0.95914    0.58103    0.13064   1.00
H3       0.93817    0.59804    0.05742   1.00
H2       0.84776    0.41104    0.30272   1.00
H2       0.82337    0.43768    0.26499   1.00
N1       0.81969    0.37668    0.25977   1.00
C6       0.80815    0.34531    0.28422   1.00
C6       0.80522    0.36710    0.22215   1.00
C6       0.78787    0.31832    0.26223   1.00
C6       0.78609    0.33170    0.22409   1.00
H3       0.81447    0.34311    0.31508   1.00
H3       0.80911    0.38475    0.19624   1.00
H3       0.77556    0.29133    0.27295   1.00
H3       0.77219    0.31691    0.19995   1.00
