data_IRMOF10_SG202_interpen_Ligand3cp_label_v.

_audit_creation_method             'generated by an auxiliary program of Tobunporous'

_symmetry_space_group_name_H-M     'P 1'
_symmetry_Int_Tables_number        1
_symmetry_cell_setting             triclinic

_cell_length_a                    34.2800
_cell_length_b                    34.2800
_cell_length_c                    34.2800
_cell_angle_alpha                 90.0000
_cell_angle_beta                  90.0000
_cell_angle_gamma                 90.0000

loop_
_atom_site_label
_atom_site_fract_x
_atom_site_fract_y
_atom_site_fract_z
_atom_site_occupancy
O1       0.75000    0.75000    0.75000   1.00
Zn1      0.71720    0.78280    0.78280   1.00
Zn1      0.78280    0.71720    0.78280   1.00
Zn1      0.78280    0.78280    0.71720   1.00
Zn1      0.71720    0.71720    0.71720   1.00
O2       0.72650    0.77350    0.83820   1.00
O2       0.72650    0.83820    0.77350   1.00
O2       0.66180    0.77350    0.77350   1.00
O2       0.77350    0.72650    0.83820   1.00
O2       0.83820    0.72650    0.77350   1.00
O2       0.77350    0.66180    0.77350   1.00
O2       0.77350    0.83820    0.72650   1.00
O2       0.83820    0.77350    0.72650   1.00
O2       0.77350    0.77350    0.66180   1.00
O2       0.66180    0.72650    0.72650   1.00
O2       0.72650    0.66180    0.72650   1.00
O2       0.72650    0.72650    0.66180   1.00
C1       0.75000    0.75000    0.85520   1.00
C1       0.75000    0.85520    0.75000   1.00
C1       0.64480    0.75000    0.75000   1.00
C1       0.85520    0.75000    0.75000   1.00
C1       0.75000    0.64480    0.75000   1.00
C1       0.75000    0.75000    0.64480   1.00
O1       0.25000    0.25000    0.75000   1.00
Zn1      0.21720    0.28280    0.78280   1.00
Zn1      0.28280    0.21720    0.78280   1.00
Zn1      0.28280    0.28280    0.71720   1.00
Zn1      0.21720    0.21720    0.71720   1.00
O2       0.22650    0.27350    0.83820   1.00
O2       0.22650    0.33820    0.77350   1.00
O2       0.16180    0.27350    0.77350   1.00
O2       0.27350    0.22650    0.83820   1.00
O2       0.33820    0.22650    0.77350   1.00
O2       0.27350    0.16180    0.77350   1.00
O2       0.27350    0.33820    0.72650   1.00
O2       0.33820    0.27350    0.72650   1.00
O2       0.27350    0.27350    0.66180   1.00
O2       0.16180    0.22650    0.72650   1.00
O2       0.22650    0.16180    0.72650   1.00
O2       0.22650    0.22650    0.66180   1.00
C1       0.25000    0.25000    0.85520   1.00
C1       0.25000    0.35520    0.75000   1.00
C1       0.14480    0.25000    0.75000   1.00
C1       0.35520    0.25000    0.75000   1.00
C1       0.25000    0.14480    0.75000   1.00
C1       0.25000    0.25000    0.64480   1.00
O1       0.25000    0.75000    0.25000   1.00
Zn1      0.21720    0.78280    0.28280   1.00
Zn1      0.28280    0.71720    0.28280   1.00
Zn1      0.28280    0.78280    0.21720   1.00
Zn1      0.21720    0.71720    0.21720   1.00
O2       0.22650    0.77350    0.33820   1.00
O2       0.22650    0.83820    0.27350   1.00
O2       0.16180    0.77350    0.27350   1.00
O2       0.27350    0.72650    0.33820   1.00
O2       0.33820    0.72650    0.27350   1.00
O2       0.27350    0.66180    0.27350   1.00
O2       0.27350    0.83820    0.22650   1.00
O2       0.33820    0.77350    0.22650   1.00
O2       0.27350    0.77350    0.16180   1.00
O2       0.16180    0.72650    0.22650   1.00
O2       0.22650    0.66180    0.22650   1.00
O2       0.22650    0.72650    0.16180   1.00
C1       0.25000    0.75000    0.35520   1.00
C1       0.25000    0.85520    0.25000   1.00
C1       0.14480    0.75000    0.25000   1.00
C1       0.35520    0.75000    0.25000   1.00
C1       0.25000    0.64480    0.25000   1.00
C1       0.25000    0.75000    0.14480   1.00
O1       0.75000    0.25000    0.25000   1.00
Zn1      0.71720    0.28280    0.28280   1.00
Zn1      0.78280    0.21720    0.28280   1.00
Zn1      0.78280    0.28280    0.21720   1.00
Zn1      0.71720    0.21720    0.21720   1.00
O2       0.72650    0.27350    0.33820   1.00
O2       0.72650    0.33820    0.27350   1.00
O2       0.66180    0.27350    0.27350   1.00
O2       0.77350    0.22650    0.33820   1.00
O2       0.83820    0.22650    0.27350   1.00
O2       0.77350    0.16180    0.27350   1.00
O2       0.77350    0.33820    0.22650   1.00
O2       0.83820    0.27350    0.22650   1.00
O2       0.77350    0.27350    0.16180   1.00
O2       0.66180    0.22650    0.22650   1.00
O2       0.72650    0.16180    0.22650   1.00
O2       0.72650    0.22650    0.16180   1.00
C1       0.75000    0.25000    0.35520   1.00
C1       0.75000    0.35520    0.25000   1.00
C1       0.64480    0.25000    0.25000   1.00
C1       0.85520    0.25000    0.25000   1.00
C1       0.75000    0.14480    0.25000   1.00
C1       0.75000    0.25000    0.14480   1.00
O1       0.25000    0.25000    0.25000   1.00
Zn1      0.28280    0.21720    0.21720   1.00
Zn1      0.21720    0.28280    0.21720   1.00
Zn1      0.21720    0.21720    0.28280   1.00
Zn1      0.28280    0.28280    0.28280   1.00
O2       0.27350    0.22650    0.16180   1.00
O2       0.27350    0.16180    0.22650   1.00
O2       0.33820    0.22650    0.22650   1.00
O2       0.22650    0.27350    0.16180   1.00
O2       0.16180    0.27350    0.22650   1.00
O2       0.22650    0.33820    0.22650   1.00
O2       0.22650    0.16180    0.27350   1.00
O2       0.16180    0.22650    0.27350   1.00
O2       0.22650    0.22650    0.33820   1.00
O2       0.33820    0.27350    0.27350   1.00
O2       0.27350    0.33820    0.27350   1.00
O2       0.27350    0.27350    0.33820   1.00
C1       0.25000    0.25000    0.14480   1.00
C1       0.25000    0.14480    0.25000   1.00
C1       0.35520    0.25000    0.25000   1.00
C1       0.14480    0.25000    0.25000   1.00
C1       0.25000    0.35520    0.25000   1.00
C1       0.25000    0.25000    0.35520   1.00
O1       0.75000    0.75000    0.25000   1.00
Zn1      0.78280    0.71720    0.21720   1.00
Zn1      0.71720    0.78280    0.21720   1.00
Zn1      0.71720    0.71720    0.28280   1.00
Zn1      0.78280    0.78280    0.28280   1.00
O2       0.77350    0.72650    0.16180   1.00
O2       0.77350    0.66180    0.22650   1.00
O2       0.83820    0.72650    0.22650   1.00
O2       0.72650    0.77350    0.16180   1.00
O2       0.66180    0.77350    0.22650   1.00
O2       0.72650    0.83820    0.22650   1.00
O2       0.72650    0.66180    0.27350   1.00
O2       0.66180    0.72650    0.27350   1.00
O2       0.72650    0.72650    0.33820   1.00
O2       0.83820    0.77350    0.27350   1.00
O2       0.77350    0.83820    0.27350   1.00
O2       0.77350    0.77350    0.33820   1.00
C1       0.75000    0.75000    0.14480   1.00
C1       0.75000    0.64480    0.25000   1.00
C1       0.85520    0.75000    0.25000   1.00
C1       0.64480    0.75000    0.25000   1.00
C1       0.75000    0.85520    0.25000   1.00
C1       0.75000    0.75000    0.35520   1.00
O1       0.75000    0.25000    0.75000   1.00
Zn1      0.78280    0.21720    0.71720   1.00
Zn1      0.71720    0.28280    0.71720   1.00
Zn1      0.71720    0.21720    0.78280   1.00
Zn1      0.78280    0.28280    0.78280   1.00
O2       0.77350    0.22650    0.66180   1.00
O2       0.77350    0.16180    0.72650   1.00
O2       0.83820    0.22650    0.72650   1.00
O2       0.72650    0.27350    0.66180   1.00
O2       0.66180    0.27350    0.72650   1.00
O2       0.72650    0.33820    0.72650   1.00
O2       0.72650    0.16180    0.77350   1.00
O2       0.66180    0.22650    0.77350   1.00
O2       0.72650    0.22650    0.83820   1.00
O2       0.83820    0.27350    0.77350   1.00
O2       0.77350    0.33820    0.77350   1.00
O2       0.77350    0.27350    0.83820   1.00
C1       0.75000    0.25000    0.64480   1.00
C1       0.75000    0.14480    0.75000   1.00
C1       0.85520    0.25000    0.75000   1.00
C1       0.64480    0.25000    0.75000   1.00
C1       0.75000    0.35520    0.75000   1.00
C1       0.75000    0.25000    0.85520   1.00
O1       0.25000    0.75000    0.75000   1.00
Zn1      0.28280    0.71720    0.71720   1.00
Zn1      0.21720    0.78280    0.71720   1.00
Zn1      0.21720    0.71720    0.78280   1.00
Zn1      0.28280    0.78280    0.78280   1.00
O2       0.27350    0.72650    0.66180   1.00
O2       0.27350    0.66180    0.72650   1.00
O2       0.33820    0.72650    0.72650   1.00
O2       0.22650    0.77350    0.66180   1.00
O2       0.16180    0.77350    0.72650   1.00
O2       0.22650    0.83820    0.72650   1.00
O2       0.22650    0.66180    0.77350   1.00
O2       0.16180    0.72650    0.77350   1.00
O2       0.22650    0.72650    0.83820   1.00
O2       0.33820    0.77350    0.77350   1.00
O2       0.27350    0.83820    0.77350   1.00
O2       0.27350    0.77350    0.83820   1.00
C1       0.25000    0.75000    0.64480   1.00
C1       0.25000    0.64480    0.75000   1.00
C1       0.35520    0.75000    0.75000   1.00
C1       0.14480    0.75000    0.75000   1.00
C1       0.25000    0.85520    0.75000   1.00
C1       0.25000    0.75000    0.85520   1.00
O1       0.91500    0.91500    0.91500   1.00
Zn1      0.88220    0.94780    0.94780   1.00
Zn1      0.94780    0.88220    0.94780   1.00
Zn1      0.94780    0.94780    0.88220   1.00
Zn1      0.88220    0.88220    0.88220   1.00
O2       0.89150    0.93850    1.00320   1.00
O2       0.89150    1.00320    0.93850   1.00
O2       0.82680    0.93850    0.93850   1.00
O2       0.93850    0.89150    1.00320   1.00
O2       1.00320    0.89150    0.93850   1.00
O2       0.93850    0.82680    0.93850   1.00
O2       0.93850    1.00320    0.89150   1.00
O2       1.00320    0.93850    0.89150   1.00
O2       0.93850    0.93850    0.82680   1.00
O2       0.82680    0.89150    0.89150   1.00
O2       0.89150    0.82680    0.89150   1.00
O2       0.89150    0.89150    0.82680   1.00
C1       0.91500    0.91500    1.02020   1.00
C1       0.91500    1.02020    0.91500   1.00
C1       0.80980    0.91500    0.91500   1.00
C1       1.02020    0.91500    0.91500   1.00
C1       0.91500    0.80980    0.91500   1.00
C1       0.91500    0.91500    0.80980   1.00
O1       0.41500    0.41500    0.91500   1.00
Zn1      0.38220    0.44780    0.94780   1.00
Zn1      0.44780    0.38220    0.94780   1.00
Zn1      0.44780    0.44780    0.88220   1.00
Zn1      0.38220    0.38220    0.88220   1.00
O2       0.39150    0.43850    1.00320   1.00
O2       0.39150    0.50320    0.93850   1.00
O2       0.32680    0.43850    0.93850   1.00
O2       0.43850    0.39150    1.00320   1.00
O2       0.50320    0.39150    0.93850   1.00
O2       0.43850    0.32680    0.93850   1.00
O2       0.43850    0.50320    0.89150   1.00
O2       0.50320    0.43850    0.89150   1.00
O2       0.43850    0.43850    0.82680   1.00
O2       0.32680    0.39150    0.89150   1.00
O2       0.39150    0.32680    0.89150   1.00
O2       0.39150    0.39150    0.82680   1.00
C1       0.41500    0.41500    1.02020   1.00
C1       0.41500    0.52020    0.91500   1.00
C1       0.30980    0.41500    0.91500   1.00
C1       0.52020    0.41500    0.91500   1.00
C1       0.41500    0.30980    0.91500   1.00
C1       0.41500    0.41500    0.80980   1.00
O1       0.41500    0.91500    0.41500   1.00
Zn1      0.38220    0.94780    0.44780   1.00
Zn1      0.44780    0.88220    0.44780   1.00
Zn1      0.44780    0.94780    0.38220   1.00
Zn1      0.38220    0.88220    0.38220   1.00
O2       0.39150    0.93850    0.50320   1.00
O2       0.39150    1.00320    0.43850   1.00
O2       0.32680    0.93850    0.43850   1.00
O2       0.43850    0.89150    0.50320   1.00
O2       0.50320    0.89150    0.43850   1.00
O2       0.43850    0.82680    0.43850   1.00
O2       0.43850    1.00320    0.39150   1.00
O2       0.50320    0.93850    0.39150   1.00
O2       0.43850    0.93850    0.32680   1.00
O2       0.32680    0.89150    0.39150   1.00
O2       0.39150    0.82680    0.39150   1.00
O2       0.39150    0.89150    0.32680   1.00
C1       0.41500    0.91500    0.52020   1.00
C1       0.41500    1.02020    0.41500   1.00
C1       0.30980    0.91500    0.41500   1.00
C1       0.52020    0.91500    0.41500   1.00
C1       0.41500    0.80980    0.41500   1.00
C1       0.41500    0.91500    0.30980   1.00
O1       0.91500    0.41500    0.41500   1.00
Zn1      0.88220    0.44780    0.44780   1.00
Zn1      0.94780    0.38220    0.44780   1.00
Zn1      0.94780    0.44780    0.38220   1.00
Zn1      0.88220    0.38220    0.38220   1.00
O2       0.89150    0.43850    0.50320   1.00
O2       0.89150    0.50320    0.43850   1.00
O2       0.82680    0.43850    0.43850   1.00
O2       0.93850    0.39150    0.50320   1.00
O2       1.00320    0.39150    0.43850   1.00
O2       0.93850    0.32680    0.43850   1.00
O2       0.93850    0.50320    0.39150   1.00
O2       1.00320    0.43850    0.39150   1.00
O2       0.93850    0.43850    0.32680   1.00
O2       0.82680    0.39150    0.39150   1.00
O2       0.89150    0.32680    0.39150   1.00
O2       0.89150    0.39150    0.32680   1.00
C1       0.91500    0.41500    0.52020   1.00
C1       0.91500    0.52020    0.41500   1.00
C1       0.80980    0.41500    0.41500   1.00
C1       1.02020    0.41500    0.41500   1.00
C1       0.91500    0.30980    0.41500   1.00
C1       0.91500    0.41500    0.30980   1.00
O1       0.41500    0.41500    0.41500   1.00
Zn1      0.44780    0.38220    0.38220   1.00
Zn1      0.38220    0.44780    0.38220   1.00
Zn1      0.38220    0.38220    0.44780   1.00
Zn1      0.44780    0.44780    0.44780   1.00
O2       0.43850    0.39150    0.32680   1.00
O2       0.43850    0.32680    0.39150   1.00
O2       0.50320    0.39150    0.39150   1.00
O2       0.39150    0.43850    0.32680   1.00
O2       0.32680    0.43850    0.39150   1.00
O2       0.39150    0.50320    0.39150   1.00
O2       0.39150    0.32680    0.43850   1.00
O2       0.32680    0.39150    0.43850   1.00
O2       0.39150    0.39150    0.50320   1.00
O2       0.50320    0.43850    0.43850   1.00
O2       0.43850    0.50320    0.43850   1.00
O2       0.43850    0.43850    0.50320   1.00
C1       0.41500    0.41500    0.30980   1.00
C1       0.41500    0.30980    0.41500   1.00
C1       0.52020    0.41500    0.41500   1.00
C1       0.30980    0.41500    0.41500   1.00
C1       0.41500    0.52020    0.41500   1.00
C1       0.41500    0.41500    0.52020   1.00
O1       0.91500    0.91500    0.41500   1.00
Zn1      0.94780    0.88220    0.38220   1.00
Zn1      0.88220    0.94780    0.38220   1.00
Zn1      0.88220    0.88220    0.44780   1.00
Zn1      0.94780    0.94780    0.44780   1.00
O2       0.93850    0.89150    0.32680   1.00
O2       0.93850    0.82680    0.39150   1.00
O2       1.00320    0.89150    0.39150   1.00
O2       0.89150    0.93850    0.32680   1.00
O2       0.82680    0.93850    0.39150   1.00
O2       0.89150    1.00320    0.39150   1.00
O2       0.89150    0.82680    0.43850   1.00
O2       0.82680    0.89150    0.43850   1.00
O2       0.89150    0.89150    0.50320   1.00
O2       1.00320    0.93850    0.43850   1.00
O2       0.93850    1.00320    0.43850   1.00
O2       0.93850    0.93850    0.50320   1.00
C1       0.91500    0.91500    0.30980   1.00
C1       0.91500    0.80980    0.41500   1.00
C1       1.02020    0.91500    0.41500   1.00
C1       0.80980    0.91500    0.41500   1.00
C1       0.91500    1.02020    0.41500   1.00
C1       0.91500    0.91500    0.52020   1.00
O1       0.91500    0.41500    0.91500   1.00
Zn1      0.94780    0.38220    0.88220   1.00
Zn1      0.88220    0.44780    0.88220   1.00
Zn1      0.88220    0.38220    0.94780   1.00
Zn1      0.94780    0.44780    0.94780   1.00
O2       0.93850    0.39150    0.82680   1.00
O2       0.93850    0.32680    0.89150   1.00
O2       1.00320    0.39150    0.89150   1.00
O2       0.89150    0.43850    0.82680   1.00
O2       0.82680    0.43850    0.89150   1.00
O2       0.89150    0.50320    0.89150   1.00
O2       0.89150    0.32680    0.93850   1.00
O2       0.82680    0.39150    0.93850   1.00
O2       0.89150    0.39150    1.00320   1.00
O2       1.00320    0.43850    0.93850   1.00
O2       0.93850    0.50320    0.93850   1.00
O2       0.93850    0.43850    1.00320   1.00
C1       0.91500    0.41500    0.80980   1.00
C1       0.91500    0.30980    0.91500   1.00
C1       1.02020    0.41500    0.91500   1.00
C1       0.80980    0.41500    0.91500   1.00
C1       0.91500    0.52020    0.91500   1.00
C1       0.91500    0.41500    1.02020   1.00
O1       0.41500    0.91500    0.91500   1.00
Zn1      0.44780    0.88220    0.88220   1.00
Zn1      0.38220    0.94780    0.88220   1.00
Zn1      0.38220    0.88220    0.94780   1.00
Zn1      0.44780    0.94780    0.94780   1.00
O2       0.43850    0.89150    0.82680   1.00
O2       0.43850    0.82680    0.89150   1.00
O2       0.50320    0.89150    0.89150   1.00
O2       0.39150    0.93850    0.82680   1.00
O2       0.32680    0.93850    0.89150   1.00
O2       0.39150    1.00320    0.89150   1.00
O2       0.39150    0.82680    0.93850   1.00
O2       0.32680    0.89150    0.93850   1.00
O2       0.39150    0.89150    1.00320   1.00
O2       0.50320    0.93850    0.93850   1.00
O2       0.43850    1.00320    0.93850   1.00
O2       0.43850    0.93850    1.00320   1.00
C1       0.41500    0.91500    0.80980   1.00
C1       0.41500    0.80980    0.91500   1.00
C1       0.52020    0.91500    0.91500   1.00
C1       0.30980    0.91500    0.91500   1.00
C1       0.41500    1.02020    0.91500   1.00
C1       0.41500    0.91500    1.02020   1.00
C4       0.74719    0.75116    1.02084   1.00
C4       0.74785    0.75145    0.97912   1.00
C3       0.72724    0.77943    1.04364   1.00
C3       0.73169    0.78194    0.95616   1.00
C3       0.76802    0.72141    1.04123   1.00
C3       0.76549    0.71962    0.95886   1.00
C2       0.74885    0.74966    1.10512   1.00
C2       0.75115    0.75034    0.89488   1.00
C3       0.72822    0.77886    1.08462   1.00
C3       0.73296    0.78124    0.91519   1.00
C3       0.76804    0.72091    1.08258   1.00
C3       0.76794    0.72029    0.91762   1.00
H1       0.71131    0.80119    1.03115   1.00
H1       0.71874    0.80566    0.96852   1.00
C5       0.78856    0.69225    1.02020   1.00
C5       0.78089    0.68745    0.97980   1.00
H1       0.71348    0.80023    1.09955   1.00
H1       0.72050    0.80392    0.90010   1.00
H1       0.78221    0.69877    1.09680   1.00
H1       0.78284    0.69853    0.90368   1.00
O3       0.81377    0.66766    1.03961   1.00
O3       0.79094    0.65321    0.96099   1.00
Si1      0.86006    0.67862    1.04247   1.00
Si1      0.75712    0.62071    0.95279   1.00
C6       0.87343    0.64131    1.07538   1.00
C6       0.88064    0.67075    0.99598   1.00
C6       0.86875    0.72528    1.06253   1.00
C6       0.70874    0.63169    0.96693   1.00
C6       0.75905    0.61448    0.90198   1.00
C6       0.77252    0.57686    0.97477   1.00
C6       0.84638    0.63630    1.11194   1.00
H2       0.86895    0.61504    1.05791   1.00
C6       0.91621    0.63823    1.09147   1.00
H2       0.86081    0.64915    0.98358   1.00
C6       0.88124    0.70547    0.96634   1.00
C6       0.92226    0.65212    0.99336   1.00
H2       0.84996    0.72510    1.08831   1.00
C6       0.91099    0.73401    1.07772   1.00
C6       0.85752    0.76270    1.03849   1.00
C6       0.70097    0.64196    1.01071   1.00
C6       0.68421    0.66134    0.94225   1.00
H2       0.69386    0.60394    0.96212   1.00
H2       0.74747    0.64183    0.89051   1.00
C6       0.80078    0.61041    0.88378   1.00
C6       0.73366    0.58114    0.88393   1.00
H2       0.79300    0.56446    0.95375   1.00
C6       0.79627    0.58089    1.01336   1.00
C6       0.74119    0.54448    0.98244   1.00
H2       0.81597    0.63186    1.10346   1.00
H2       0.84770    0.66191    1.13090   1.00
H2       0.85486    0.61082    1.12917   1.00
H2       0.92396    0.60762    1.09608   1.00
H2       0.93776    0.65063    1.07178   1.00
H2       0.91961    0.65275    1.11964   1.00
H2       0.88677    0.69494    0.93672   1.00
H2       0.85345    0.72079    0.96532   1.00
H2       0.90418    0.72637    0.97352   1.00
H2       0.92349    0.62420    1.00862   1.00
H2       0.93037    0.64605    0.96308   1.00
H2       0.94437    0.67161    1.00550   1.00
H2       0.93274    0.72830    1.05514   1.00
H2       0.91435    0.76436    1.08708   1.00
H2       0.91787    0.71663    1.10332   1.00
H2       0.88099    0.77192    1.01902   1.00
H2       0.83168    0.75899    1.02068   1.00
H2       0.85165    0.78705    1.05828   1.00
H2       0.70703    0.67255    1.01688   1.00
H2       0.67035    0.63687    1.01809   1.00
H2       0.71835    0.62420    1.03048   1.00
H2       0.65359    0.66083    0.95125   1.00
H2       0.69435    0.69122    0.94574   1.00
H2       0.68449    0.65427    0.91122   1.00
H2       0.79942    0.61339    0.85202   1.00
H2       0.82037    0.63324    0.89435   1.00
H2       0.81396    0.58218    0.89035   1.00
H2       0.70354    0.58240    0.89416   1.00
H2       0.73279    0.58379    0.85212   1.00
H2       0.74556    0.55239    0.89085   1.00
H2       0.77927    0.59447    1.03656   1.00
H2       0.80663    0.55261    1.02381   1.00
H2       0.82189    0.59883    1.00834   1.00
H2       0.75513    0.51690    0.99044   1.00
H2       0.72158    0.55264    1.00622   1.00
H2       0.72362    0.53870    0.95657   1.00
C4       0.75116    1.02084    0.74719   1.00
C4       0.75145    0.97912    0.74785   1.00
C3       0.77943    1.04364    0.72724   1.00
C3       0.78194    0.95616    0.73169   1.00
C3       0.72141    1.04123    0.76802   1.00
C3       0.71962    0.95886    0.76549   1.00
C2       0.74966    1.10512    0.74885   1.00
C2       0.75034    0.89488    0.75115   1.00
C3       0.77886    1.08462    0.72822   1.00
C3       0.78124    0.91519    0.73296   1.00
C3       0.72091    1.08258    0.76804   1.00
C3       0.72029    0.91762    0.76794   1.00
H1       0.80119    1.03115    0.71131   1.00
H1       0.80566    0.96852    0.71874   1.00
C5       0.69225    1.02020    0.78856   1.00
C5       0.68745    0.97980    0.78089   1.00
H1       0.80023    1.09955    0.71348   1.00
H1       0.80392    0.90010    0.72050   1.00
H1       0.69877    1.09680    0.78221   1.00
H1       0.69853    0.90368    0.78284   1.00
O3       0.66766    1.03961    0.81377   1.00
O3       0.65321    0.96099    0.79094   1.00
Si1      0.67862    1.04247    0.86006   1.00
Si1      0.62071    0.95279    0.75712   1.00
C6       0.64131    1.07538    0.87343   1.00
C6       0.67075    0.99598    0.88064   1.00
C6       0.72528    1.06253    0.86875   1.00
C6       0.63169    0.96693    0.70874   1.00
C6       0.61448    0.90198    0.75905   1.00
C6       0.57686    0.97477    0.77252   1.00
C6       0.63630    1.11194    0.84638   1.00
H2       0.61504    1.05791    0.86895   1.00
C6       0.63823    1.09147    0.91621   1.00
H2       0.64915    0.98358    0.86081   1.00
C6       0.70547    0.96634    0.88124   1.00
C6       0.65212    0.99336    0.92226   1.00
H2       0.72510    1.08831    0.84996   1.00
C6       0.73401    1.07772    0.91099   1.00
C6       0.76270    1.03849    0.85752   1.00
C6       0.64196    1.01071    0.70097   1.00
C6       0.66134    0.94225    0.68421   1.00
H2       0.60394    0.96212    0.69386   1.00
H2       0.64183    0.89051    0.74747   1.00
C6       0.61041    0.88378    0.80078   1.00
C6       0.58114    0.88393    0.73366   1.00
H2       0.56446    0.95375    0.79300   1.00
C6       0.58089    1.01336    0.79627   1.00
C6       0.54448    0.98244    0.74119   1.00
H2       0.63186    1.10346    0.81597   1.00
H2       0.66191    1.13090    0.84770   1.00
H2       0.61082    1.12917    0.85486   1.00
H2       0.60762    1.09608    0.92396   1.00
H2       0.65063    1.07178    0.93776   1.00
H2       0.65275    1.11964    0.91961   1.00
H2       0.69494    0.93672    0.88677   1.00
H2       0.72079    0.96532    0.85345   1.00
H2       0.72637    0.97352    0.90418   1.00
H2       0.62420    1.00862    0.92349   1.00
H2       0.64605    0.96308    0.93037   1.00
H2       0.67161    1.00550    0.94437   1.00
H2       0.72830    1.05514    0.93274   1.00
H2       0.76436    1.08708    0.91435   1.00
H2       0.71663    1.10332    0.91787   1.00
H2       0.77192    1.01902    0.88099   1.00
H2       0.75899    1.02068    0.83168   1.00
H2       0.78705    1.05828    0.85165   1.00
H2       0.67255    1.01688    0.70703   1.00
H2       0.63687    1.01809    0.67035   1.00
H2       0.62420    1.03048    0.71835   1.00
H2       0.66083    0.95125    0.65359   1.00
H2       0.69122    0.94574    0.69435   1.00
H2       0.65427    0.91122    0.68449   1.00
H2       0.61339    0.85202    0.79942   1.00
H2       0.63324    0.89435    0.82037   1.00
H2       0.58218    0.89035    0.81396   1.00
H2       0.58240    0.89416    0.70354   1.00
H2       0.58379    0.85212    0.73279   1.00
H2       0.55239    0.89085    0.74556   1.00
H2       0.59447    1.03656    0.77927   1.00
H2       0.55261    1.02381    0.80663   1.00
H2       0.59883    1.00834    0.82189   1.00
H2       0.51690    0.99044    0.75513   1.00
H2       0.55264    1.00622    0.72158   1.00
H2       0.53870    0.95657    0.72362   1.00
C4       0.47916    0.74719    0.74884   1.00
C4       0.52088    0.74785    0.74855   1.00
C3       0.45636    0.72724    0.72057   1.00
C3       0.54384    0.73169    0.71806   1.00
C3       0.45877    0.76802    0.77859   1.00
C3       0.54114    0.76549    0.78038   1.00
C2       0.39488    0.74885    0.75034   1.00
C2       0.60512    0.75115    0.74966   1.00
C3       0.41538    0.72822    0.72114   1.00
C3       0.58481    0.73296    0.71876   1.00
C3       0.41742    0.76804    0.77909   1.00
C3       0.58238    0.76794    0.77971   1.00
H1       0.46885    0.71131    0.69881   1.00
H1       0.53148    0.71874    0.69434   1.00
C5       0.47980    0.78856    0.80775   1.00
C5       0.52020    0.78089    0.81255   1.00
H1       0.40045    0.71348    0.69977   1.00
H1       0.59990    0.72050    0.69608   1.00
H1       0.40320    0.78221    0.80123   1.00
H1       0.59632    0.78284    0.80147   1.00
O3       0.46039    0.81377    0.83234   1.00
O3       0.53901    0.79094    0.84679   1.00
Si1      0.45753    0.86006    0.82138   1.00
Si1      0.54721    0.75712    0.87929   1.00
C6       0.42462    0.87343    0.85869   1.00
C6       0.50402    0.88064    0.82925   1.00
C6       0.43747    0.86875    0.77472   1.00
C6       0.53307    0.70874    0.86831   1.00
C6       0.59802    0.75905    0.88552   1.00
C6       0.52523    0.77252    0.92314   1.00
C6       0.38806    0.84638    0.86370   1.00
H2       0.44209    0.86895    0.88496   1.00
C6       0.40853    0.91621    0.86177   1.00
H2       0.51642    0.86081    0.85085   1.00
C6       0.53366    0.88124    0.79453   1.00
C6       0.50664    0.92226    0.84788   1.00
H2       0.41169    0.84996    0.77490   1.00
C6       0.42228    0.91099    0.76599   1.00
C6       0.46151    0.85752    0.73730   1.00
C6       0.48929    0.70097    0.85804   1.00
C6       0.55775    0.68421    0.83866   1.00
H2       0.53788    0.69386    0.89606   1.00
H2       0.60949    0.74747    0.85817   1.00
C6       0.61622    0.80078    0.88959   1.00
C6       0.61607    0.73366    0.91886   1.00
H2       0.54625    0.79300    0.93554   1.00
C6       0.48664    0.79627    0.91911   1.00
C6       0.51756    0.74119    0.95552   1.00
H2       0.39654    0.81597    0.86814   1.00
H2       0.36910    0.84770    0.83809   1.00
H2       0.37083    0.85486    0.88918   1.00
H2       0.40392    0.92396    0.89238   1.00
H2       0.42822    0.93776    0.84937   1.00
H2       0.38036    0.91961    0.84725   1.00
H2       0.56328    0.88677    0.80506   1.00
H2       0.53468    0.85345    0.77921   1.00
H2       0.52648    0.90418    0.77363   1.00
H2       0.49138    0.92349    0.87580   1.00
H2       0.53692    0.93037    0.85395   1.00
H2       0.49450    0.94437    0.82839   1.00
H2       0.44486    0.93274    0.77170   1.00
H2       0.41292    0.91435    0.73564   1.00
H2       0.39668    0.91787    0.78337   1.00
H2       0.48098    0.88099    0.72808   1.00
H2       0.47932    0.83168    0.74101   1.00
H2       0.44172    0.85165    0.71295   1.00
H2       0.48312    0.70703    0.82745   1.00
H2       0.48191    0.67035    0.86313   1.00
H2       0.46952    0.71835    0.87580   1.00
H2       0.54875    0.65359    0.83917   1.00
H2       0.55426    0.69435    0.80878   1.00
H2       0.58878    0.68449    0.84573   1.00
H2       0.64798    0.79942    0.88661   1.00
H2       0.60565    0.82037    0.86676   1.00
H2       0.60965    0.81396    0.91782   1.00
H2       0.60584    0.70354    0.91760   1.00
H2       0.64788    0.73279    0.91621   1.00
H2       0.60915    0.74556    0.94761   1.00
H2       0.46344    0.77927    0.90553   1.00
H2       0.47619    0.80663    0.94739   1.00
H2       0.49166    0.82189    0.90117   1.00
H2       0.50956    0.75513    0.98310   1.00
H2       0.49378    0.72158    0.94736   1.00
H2       0.54343    0.72362    0.96130   1.00
C4       1.02084    0.74719    0.75116   1.00
C4       0.97912    0.74785    0.75145   1.00
C3       1.04364    0.72724    0.77943   1.00
C3       0.95616    0.73169    0.78194   1.00
C3       1.04123    0.76802    0.72141   1.00
C3       0.95886    0.76549    0.71962   1.00
C2       1.10512    0.74885    0.74966   1.00
C2       0.89488    0.75115    0.75034   1.00
C3       1.08462    0.72822    0.77886   1.00
C3       0.91519    0.73296    0.78124   1.00
C3       1.08258    0.76804    0.72091   1.00
C3       0.91762    0.76794    0.72029   1.00
H1       1.03115    0.71131    0.80119   1.00
H1       0.96852    0.71874    0.80566   1.00
C5       1.02020    0.78856    0.69225   1.00
C5       0.97980    0.78089    0.68745   1.00
H1       1.09955    0.71348    0.80023   1.00
H1       0.90010    0.72050    0.80392   1.00
H1       1.09680    0.78221    0.69877   1.00
H1       0.90368    0.78284    0.69853   1.00
O3       1.03961    0.81377    0.66766   1.00
O3       0.96099    0.79094    0.65321   1.00
Si1      1.04247    0.86006    0.67862   1.00
Si1      0.95279    0.75712    0.62071   1.00
C6       1.07538    0.87343    0.64131   1.00
C6       0.99598    0.88064    0.67075   1.00
C6       1.06253    0.86875    0.72528   1.00
C6       0.96693    0.70874    0.63169   1.00
C6       0.90198    0.75905    0.61448   1.00
C6       0.97477    0.77252    0.57686   1.00
C6       1.11194    0.84638    0.63630   1.00
H2       1.05791    0.86895    0.61504   1.00
C6       1.09147    0.91621    0.63823   1.00
H2       0.98358    0.86081    0.64915   1.00
C6       0.96634    0.88124    0.70547   1.00
C6       0.99336    0.92226    0.65212   1.00
H2       1.08831    0.84996    0.72510   1.00
C6       1.07772    0.91099    0.73401   1.00
C6       1.03849    0.85752    0.76270   1.00
C6       1.01071    0.70097    0.64196   1.00
C6       0.94225    0.68421    0.66134   1.00
H2       0.96212    0.69386    0.60394   1.00
H2       0.89051    0.74747    0.64183   1.00
C6       0.88378    0.80078    0.61041   1.00
C6       0.88393    0.73366    0.58114   1.00
H2       0.95375    0.79300    0.56446   1.00
C6       1.01336    0.79627    0.58089   1.00
C6       0.98244    0.74119    0.54448   1.00
H2       1.10346    0.81597    0.63186   1.00
H2       1.13090    0.84770    0.66191   1.00
H2       1.12917    0.85486    0.61082   1.00
H2       1.09608    0.92396    0.60762   1.00
H2       1.07178    0.93776    0.65063   1.00
H2       1.11964    0.91961    0.65275   1.00
H2       0.93672    0.88677    0.69494   1.00
H2       0.96532    0.85345    0.72079   1.00
H2       0.97352    0.90418    0.72637   1.00
H2       1.00862    0.92349    0.62420   1.00
H2       0.96308    0.93037    0.64605   1.00
H2       1.00550    0.94437    0.67161   1.00
H2       1.05514    0.93274    0.72830   1.00
H2       1.08708    0.91435    0.76436   1.00
H2       1.10332    0.91787    0.71663   1.00
H2       1.01902    0.88099    0.77192   1.00
H2       1.02068    0.83168    0.75899   1.00
H2       1.05828    0.85165    0.78705   1.00
H2       1.01688    0.70703    0.67255   1.00
H2       1.01809    0.67035    0.63687   1.00
H2       1.03048    0.71835    0.62420   1.00
H2       0.95125    0.65359    0.66083   1.00
H2       0.94574    0.69435    0.69122   1.00
H2       0.91122    0.68449    0.65427   1.00
H2       0.85202    0.79942    0.61339   1.00
H2       0.89435    0.82037    0.63324   1.00
H2       0.89035    0.81396    0.58218   1.00
H2       0.89416    0.70354    0.58240   1.00
H2       0.85212    0.73279    0.58379   1.00
H2       0.89085    0.74556    0.55239   1.00
H2       1.03656    0.77927    0.59447   1.00
H2       1.02381    0.80663    0.55261   1.00
H2       1.00834    0.82189    0.59883   1.00
H2       0.99044    0.75513    0.51690   1.00
H2       1.00622    0.72158    0.55264   1.00
H2       0.95657    0.72362    0.53870   1.00
C4       0.74884    0.47916    0.74719   1.00
C4       0.74855    0.52088    0.74785   1.00
C3       0.72057    0.45636    0.72724   1.00
C3       0.71806    0.54384    0.73169   1.00
C3       0.77859    0.45877    0.76802   1.00
C3       0.78038    0.54114    0.76549   1.00
C2       0.75034    0.39488    0.74885   1.00
C2       0.74966    0.60512    0.75115   1.00
C3       0.72114    0.41538    0.72822   1.00
C3       0.71876    0.58481    0.73296   1.00
C3       0.77909    0.41742    0.76804   1.00
C3       0.77971    0.58238    0.76794   1.00
H1       0.69881    0.46885    0.71131   1.00
H1       0.69434    0.53148    0.71874   1.00
C5       0.80775    0.47980    0.78856   1.00
C5       0.81255    0.52020    0.78089   1.00
H1       0.69977    0.40045    0.71348   1.00
H1       0.69608    0.59990    0.72050   1.00
H1       0.80123    0.40320    0.78221   1.00
H1       0.80147    0.59632    0.78284   1.00
O3       0.83234    0.46039    0.81377   1.00
O3       0.84679    0.53901    0.79094   1.00
Si1      0.82138    0.45753    0.86006   1.00
Si1      0.87929    0.54721    0.75712   1.00
C6       0.85869    0.42462    0.87343   1.00
C6       0.82925    0.50402    0.88064   1.00
C6       0.77472    0.43747    0.86875   1.00
C6       0.86831    0.53307    0.70874   1.00
C6       0.88552    0.59802    0.75905   1.00
C6       0.92314    0.52523    0.77252   1.00
C6       0.86370    0.38806    0.84638   1.00
H2       0.88496    0.44209    0.86895   1.00
C6       0.86177    0.40853    0.91621   1.00
H2       0.85085    0.51642    0.86081   1.00
C6       0.79453    0.53366    0.88124   1.00
C6       0.84788    0.50664    0.92226   1.00
H2       0.77490    0.41169    0.84996   1.00
C6       0.76599    0.42228    0.91099   1.00
C6       0.73730    0.46151    0.85752   1.00
C6       0.85804    0.48929    0.70097   1.00
C6       0.83866    0.55775    0.68421   1.00
H2       0.89606    0.53788    0.69386   1.00
H2       0.85817    0.60949    0.74747   1.00
C6       0.88959    0.61622    0.80078   1.00
C6       0.91886    0.61607    0.73366   1.00
H2       0.93554    0.54625    0.79300   1.00
C6       0.91911    0.48664    0.79627   1.00
C6       0.95552    0.51756    0.74119   1.00
H2       0.86814    0.39654    0.81597   1.00
H2       0.83809    0.36910    0.84770   1.00
H2       0.88918    0.37083    0.85486   1.00
H2       0.89238    0.40392    0.92396   1.00
H2       0.84937    0.42822    0.93776   1.00
H2       0.84725    0.38036    0.91961   1.00
H2       0.80506    0.56328    0.88677   1.00
H2       0.77921    0.53468    0.85345   1.00
H2       0.77363    0.52648    0.90418   1.00
H2       0.87580    0.49138    0.92349   1.00
H2       0.85395    0.53692    0.93037   1.00
H2       0.82839    0.49450    0.94437   1.00
H2       0.77170    0.44486    0.93274   1.00
H2       0.73564    0.41292    0.91435   1.00
H2       0.78337    0.39668    0.91787   1.00
H2       0.72808    0.48098    0.88099   1.00
H2       0.74101    0.47932    0.83168   1.00
H2       0.71295    0.44172    0.85165   1.00
H2       0.82745    0.48312    0.70703   1.00
H2       0.86313    0.48191    0.67035   1.00
H2       0.87580    0.46952    0.71835   1.00
H2       0.83917    0.54875    0.65359   1.00
H2       0.80878    0.55426    0.69435   1.00
H2       0.84573    0.58878    0.68449   1.00
H2       0.88661    0.64798    0.79942   1.00
H2       0.86676    0.60565    0.82037   1.00
H2       0.91782    0.60965    0.81396   1.00
H2       0.91760    0.60584    0.70354   1.00
H2       0.91621    0.64788    0.73279   1.00
H2       0.94761    0.60915    0.74556   1.00
H2       0.90553    0.46344    0.77927   1.00
H2       0.94739    0.47619    0.80663   1.00
H2       0.90117    0.49166    0.82189   1.00
H2       0.98310    0.50956    0.75513   1.00
H2       0.94736    0.49378    0.72158   1.00
H2       0.96130    0.54343    0.72362   1.00
C4       0.74719    0.74884    0.47916   1.00
C4       0.74785    0.74855    0.52088   1.00
C3       0.72724    0.72057    0.45636   1.00
C3       0.73169    0.71806    0.54384   1.00
C3       0.76802    0.77859    0.45877   1.00
C3       0.76549    0.78038    0.54114   1.00
C2       0.74885    0.75034    0.39488   1.00
C2       0.75115    0.74966    0.60512   1.00
C3       0.72822    0.72114    0.41538   1.00
C3       0.73296    0.71876    0.58481   1.00
C3       0.76804    0.77909    0.41742   1.00
C3       0.76794    0.77971    0.58238   1.00
H1       0.71131    0.69881    0.46885   1.00
H1       0.71874    0.69434    0.53148   1.00
C5       0.78856    0.80775    0.47980   1.00
C5       0.78089    0.81255    0.52020   1.00
H1       0.71348    0.69977    0.40045   1.00
H1       0.72050    0.69608    0.59990   1.00
H1       0.78221    0.80123    0.40320   1.00
H1       0.78284    0.80147    0.59632   1.00
O3       0.81377    0.83234    0.46039   1.00
O3       0.79094    0.84679    0.53901   1.00
Si1      0.86006    0.82138    0.45753   1.00
Si1      0.75712    0.87929    0.54721   1.00
C6       0.87343    0.85869    0.42462   1.00
C6       0.88064    0.82925    0.50402   1.00
C6       0.86875    0.77472    0.43747   1.00
C6       0.70874    0.86831    0.53307   1.00
C6       0.75905    0.88552    0.59802   1.00
C6       0.77252    0.92314    0.52523   1.00
C6       0.84638    0.86370    0.38806   1.00
H2       0.86895    0.88496    0.44209   1.00
C6       0.91621    0.86177    0.40853   1.00
H2       0.86081    0.85085    0.51642   1.00
C6       0.88124    0.79453    0.53366   1.00
C6       0.92226    0.84788    0.50664   1.00
H2       0.84996    0.77490    0.41169   1.00
C6       0.91099    0.76599    0.42228   1.00
C6       0.85752    0.73730    0.46151   1.00
C6       0.70097    0.85804    0.48929   1.00
C6       0.68421    0.83866    0.55775   1.00
H2       0.69386    0.89606    0.53788   1.00
H2       0.74747    0.85817    0.60949   1.00
C6       0.80078    0.88959    0.61622   1.00
C6       0.73366    0.91886    0.61607   1.00
H2       0.79300    0.93554    0.54625   1.00
C6       0.79627    0.91911    0.48664   1.00
C6       0.74119    0.95552    0.51756   1.00
H2       0.81597    0.86814    0.39654   1.00
H2       0.84770    0.83809    0.36910   1.00
H2       0.85486    0.88918    0.37083   1.00
H2       0.92396    0.89238    0.40392   1.00
H2       0.93776    0.84937    0.42822   1.00
H2       0.91961    0.84725    0.38036   1.00
H2       0.88677    0.80506    0.56328   1.00
H2       0.85345    0.77921    0.53468   1.00
H2       0.90418    0.77363    0.52648   1.00
H2       0.92349    0.87580    0.49138   1.00
H2       0.93037    0.85395    0.53692   1.00
H2       0.94437    0.82839    0.49450   1.00
H2       0.93274    0.77170    0.44486   1.00
H2       0.91435    0.73564    0.41292   1.00
H2       0.91787    0.78337    0.39668   1.00
H2       0.88099    0.72808    0.48098   1.00
H2       0.83168    0.74101    0.47932   1.00
H2       0.85165    0.71295    0.44172   1.00
H2       0.70703    0.82745    0.48312   1.00
H2       0.67035    0.86313    0.48191   1.00
H2       0.71835    0.87580    0.46952   1.00
H2       0.65359    0.83917    0.54875   1.00
H2       0.69435    0.80878    0.55426   1.00
H2       0.68449    0.84573    0.58878   1.00
H2       0.79942    0.88661    0.64798   1.00
H2       0.82037    0.86676    0.60565   1.00
H2       0.81396    0.91782    0.60965   1.00
H2       0.70354    0.91760    0.60584   1.00
H2       0.73279    0.91621    0.64788   1.00
H2       0.74556    0.94761    0.60915   1.00
H2       0.77927    0.90553    0.46344   1.00
H2       0.80663    0.94739    0.47619   1.00
H2       0.82189    0.90117    0.49166   1.00
H2       0.75513    0.98310    0.50956   1.00
H2       0.72158    0.94736    0.49378   1.00
H2       0.72362    0.96130    0.54343   1.00
C4       0.24719    0.25116    1.02084   1.00
C4       0.24785    0.25145    0.97912   1.00
C3       0.22724    0.27943    1.04364   1.00
C3       0.23169    0.28194    0.95616   1.00
C3       0.26802    0.22141    1.04123   1.00
C3       0.26549    0.21962    0.95886   1.00
C2       0.24885    0.24966    1.10512   1.00
C2       0.25115    0.25034    0.89488   1.00
C3       0.22822    0.27886    1.08462   1.00
C3       0.23296    0.28124    0.91519   1.00
C3       0.26804    0.22091    1.08258   1.00
C3       0.26794    0.22029    0.91762   1.00
H1       0.21131    0.30119    1.03115   1.00
H1       0.21874    0.30566    0.96852   1.00
C5       0.28856    0.19225    1.02020   1.00
C5       0.28089    0.18745    0.97980   1.00
H1       0.21348    0.30023    1.09955   1.00
H1       0.22050    0.30392    0.90010   1.00
H1       0.28221    0.19877    1.09680   1.00
H1       0.28284    0.19853    0.90368   1.00
O3       0.31377    0.16766    1.03961   1.00
O3       0.29094    0.15321    0.96099   1.00
Si1      0.36006    0.17862    1.04247   1.00
Si1      0.25712    0.12071    0.95279   1.00
C6       0.37343    0.14131    1.07538   1.00
C6       0.38064    0.17075    0.99598   1.00
C6       0.36875    0.22528    1.06253   1.00
C6       0.20874    0.13169    0.96693   1.00
C6       0.25905    0.11448    0.90198   1.00
C6       0.27252    0.07686    0.97477   1.00
C6       0.34638    0.13630    1.11194   1.00
H2       0.36895    0.11504    1.05791   1.00
C6       0.41621    0.13823    1.09147   1.00
H2       0.36081    0.14915    0.98358   1.00
C6       0.38124    0.20547    0.96634   1.00
C6       0.42226    0.15212    0.99336   1.00
H2       0.34996    0.22510    1.08831   1.00
C6       0.41099    0.23401    1.07772   1.00
C6       0.35752    0.26270    1.03849   1.00
C6       0.20097    0.14196    1.01071   1.00
C6       0.18421    0.16134    0.94225   1.00
H2       0.19386    0.10394    0.96212   1.00
H2       0.24747    0.14183    0.89051   1.00
C6       0.30078    0.11041    0.88378   1.00
C6       0.23366    0.08114    0.88393   1.00
H2       0.29300    0.06446    0.95375   1.00
C6       0.29627    0.08089    1.01336   1.00
C6       0.24119    0.04448    0.98244   1.00
H2       0.31597    0.13186    1.10346   1.00
H2       0.34770    0.16191    1.13090   1.00
H2       0.35486    0.11082    1.12917   1.00
H2       0.42396    0.10762    1.09608   1.00
H2       0.43776    0.15063    1.07178   1.00
H2       0.41961    0.15275    1.11964   1.00
H2       0.38677    0.19494    0.93672   1.00
H2       0.35345    0.22079    0.96532   1.00
H2       0.40418    0.22637    0.97352   1.00
H2       0.42349    0.12420    1.00862   1.00
H2       0.43037    0.14605    0.96308   1.00
H2       0.44437    0.17161    1.00550   1.00
H2       0.43274    0.22830    1.05514   1.00
H2       0.41435    0.26436    1.08708   1.00
H2       0.41787    0.21663    1.10332   1.00
H2       0.38099    0.27192    1.01902   1.00
H2       0.33168    0.25899    1.02068   1.00
H2       0.35165    0.28705    1.05828   1.00
H2       0.20703    0.17255    1.01688   1.00
H2       0.17035    0.13687    1.01809   1.00
H2       0.21835    0.12420    1.03048   1.00
H2       0.15359    0.16083    0.95125   1.00
H2       0.19435    0.19122    0.94574   1.00
H2       0.18449    0.15427    0.91122   1.00
H2       0.29942    0.11339    0.85202   1.00
H2       0.32037    0.13324    0.89435   1.00
H2       0.31396    0.08218    0.89035   1.00
H2       0.20354    0.08240    0.89416   1.00
H2       0.23279    0.08379    0.85212   1.00
H2       0.24556    0.05239    0.89085   1.00
H2       0.27927    0.09447    1.03656   1.00
H2       0.30663    0.05261    1.02381   1.00
H2       0.32189    0.09883    1.00834   1.00
H2       0.25513    0.01690    0.99044   1.00
H2       0.22158    0.05264    1.00622   1.00
H2       0.22362    0.03870    0.95657   1.00
C4       0.25116    0.52084    0.74719   1.00
C4       0.25145    0.47912    0.74785   1.00
C3       0.27943    0.54364    0.72724   1.00
C3       0.28194    0.45616    0.73169   1.00
C3       0.22141    0.54123    0.76802   1.00
C3       0.21962    0.45886    0.76549   1.00
C2       0.24966    0.60512    0.74885   1.00
C2       0.25034    0.39488    0.75115   1.00
C3       0.27886    0.58462    0.72822   1.00
C3       0.28124    0.41519    0.73296   1.00
C3       0.22091    0.58258    0.76804   1.00
C3       0.22029    0.41762    0.76794   1.00
H1       0.30119    0.53115    0.71131   1.00
H1       0.30566    0.46852    0.71874   1.00
C5       0.19225    0.52020    0.78856   1.00
C5       0.18745    0.47980    0.78089   1.00
H1       0.30023    0.59955    0.71348   1.00
H1       0.30392    0.40010    0.72050   1.00
H1       0.19877    0.59680    0.78221   1.00
H1       0.19853    0.40368    0.78284   1.00
O3       0.16766    0.53961    0.81377   1.00
O3       0.15321    0.46099    0.79094   1.00
Si1      0.17862    0.54247    0.86006   1.00
Si1      0.12071    0.45279    0.75712   1.00
C6       0.14131    0.57538    0.87343   1.00
C6       0.17075    0.49598    0.88064   1.00
C6       0.22528    0.56253    0.86875   1.00
C6       0.13169    0.46693    0.70874   1.00
C6       0.11448    0.40198    0.75905   1.00
C6       0.07686    0.47477    0.77252   1.00
C6       0.13630    0.61194    0.84638   1.00
H2       0.11504    0.55791    0.86895   1.00
C6       0.13823    0.59147    0.91621   1.00
H2       0.14915    0.48358    0.86081   1.00
C6       0.20547    0.46634    0.88124   1.00
C6       0.15212    0.49336    0.92226   1.00
H2       0.22510    0.58831    0.84996   1.00
C6       0.23401    0.57772    0.91099   1.00
C6       0.26270    0.53849    0.85752   1.00
C6       0.14196    0.51071    0.70097   1.00
C6       0.16134    0.44225    0.68421   1.00
H2       0.10394    0.46212    0.69386   1.00
H2       0.14183    0.39051    0.74747   1.00
C6       0.11041    0.38378    0.80078   1.00
C6       0.08114    0.38393    0.73366   1.00
H2       0.06446    0.45375    0.79300   1.00
C6       0.08089    0.51336    0.79627   1.00
C6       0.04448    0.48244    0.74119   1.00
H2       0.13186    0.60346    0.81597   1.00
H2       0.16191    0.63090    0.84770   1.00
H2       0.11082    0.62917    0.85486   1.00
H2       0.10762    0.59608    0.92396   1.00
H2       0.15063    0.57178    0.93776   1.00
H2       0.15275    0.61964    0.91961   1.00
H2       0.19494    0.43672    0.88677   1.00
H2       0.22079    0.46532    0.85345   1.00
H2       0.22637    0.47352    0.90418   1.00
H2       0.12420    0.50862    0.92349   1.00
H2       0.14605    0.46308    0.93037   1.00
H2       0.17161    0.50550    0.94437   1.00
H2       0.22830    0.55514    0.93274   1.00
H2       0.26436    0.58708    0.91435   1.00
H2       0.21663    0.60332    0.91787   1.00
H2       0.27192    0.51902    0.88099   1.00
H2       0.25899    0.52068    0.83168   1.00
H2       0.28705    0.55828    0.85165   1.00
H2       0.17255    0.51688    0.70703   1.00
H2       0.13687    0.51809    0.67035   1.00
H2       0.12420    0.53048    0.71835   1.00
H2       0.16083    0.45125    0.65359   1.00
H2       0.19122    0.44574    0.69435   1.00
H2       0.15427    0.41122    0.68449   1.00
H2       0.11339    0.35202    0.79942   1.00
H2       0.13324    0.39435    0.82037   1.00
H2       0.08218    0.39035    0.81396   1.00
H2       0.08240    0.39416    0.70354   1.00
H2       0.08379    0.35212    0.73279   1.00
H2       0.05239    0.39085    0.74556   1.00
H2       0.09447    0.53656    0.77927   1.00
H2       0.05261    0.52381    0.80663   1.00
H2       0.09883    0.50834    0.82189   1.00
H2       0.01690    0.49044    0.75513   1.00
H2       0.05264    0.50622    0.72158   1.00
H2       0.03870    0.45657    0.72362   1.00
C4       -0.02084   0.24719    0.74884   1.00
C4       0.02088    0.24785    0.74855   1.00
C3       -0.04364   0.22724    0.72057   1.00
C3       0.04384    0.23169    0.71806   1.00
C3       -0.04123   0.26802    0.77859   1.00
C3       0.04114    0.26549    0.78038   1.00
C2       -0.10512   0.24885    0.75034   1.00
C2       0.10512    0.25115    0.74966   1.00
C3       -0.08462   0.22822    0.72114   1.00
C3       0.08481    0.23296    0.71876   1.00
C3       -0.08258   0.26804    0.77909   1.00
C3       0.08238    0.26794    0.77971   1.00
H1       -0.03115   0.21131    0.69881   1.00
H1       0.03148    0.21874    0.69434   1.00
C5       -0.02020   0.28856    0.80775   1.00
C5       0.02020    0.28089    0.81255   1.00
H1       -0.09955   0.21348    0.69977   1.00
H1       0.09990    0.22050    0.69608   1.00
H1       -0.09680   0.28221    0.80123   1.00
H1       0.09632    0.28284    0.80147   1.00
O3       -0.03961   0.31377    0.83234   1.00
O3       0.03901    0.29094    0.84679   1.00
Si1      -0.04247   0.36006    0.82138   1.00
Si1      0.04721    0.25712    0.87929   1.00
C6       -0.07538   0.37343    0.85869   1.00
C6       0.00402    0.38064    0.82925   1.00
C6       -0.06253   0.36875    0.77472   1.00
C6       0.03307    0.20874    0.86831   1.00
C6       0.09802    0.25905    0.88552   1.00
C6       0.02523    0.27252    0.92314   1.00
C6       -0.11194   0.34638    0.86370   1.00
H2       -0.05791   0.36895    0.88496   1.00
C6       -0.09147   0.41621    0.86177   1.00
H2       0.01642    0.36081    0.85085   1.00
C6       0.03366    0.38124    0.79453   1.00
C6       0.00664    0.42226    0.84788   1.00
H2       -0.08831   0.34996    0.77490   1.00
C6       -0.07772   0.41099    0.76599   1.00
C6       -0.03849   0.35752    0.73730   1.00
C6       -0.01071   0.20097    0.85804   1.00
C6       0.05775    0.18421    0.83866   1.00
H2       0.03788    0.19386    0.89606   1.00
H2       0.10949    0.24747    0.85817   1.00
C6       0.11622    0.30078    0.88959   1.00
C6       0.11607    0.23366    0.91886   1.00
H2       0.04625    0.29300    0.93554   1.00
C6       -0.01336   0.29627    0.91911   1.00
C6       0.01756    0.24119    0.95552   1.00
H2       -0.10346   0.31597    0.86814   1.00
H2       -0.13090   0.34770    0.83809   1.00
H2       -0.12917   0.35486    0.88918   1.00
H2       -0.09608   0.42396    0.89238   1.00
H2       -0.07178   0.43776    0.84937   1.00
H2       -0.11964   0.41961    0.84725   1.00
H2       0.06328    0.38677    0.80506   1.00
H2       0.03468    0.35345    0.77921   1.00
H2       0.02648    0.40418    0.77363   1.00
H2       -0.00862   0.42349    0.87580   1.00
H2       0.03692    0.43037    0.85395   1.00
H2       -0.00550   0.44437    0.82839   1.00
H2       -0.05514   0.43274    0.77170   1.00
H2       -0.08708   0.41435    0.73564   1.00
H2       -0.10332   0.41787    0.78337   1.00
H2       -0.01902   0.38099    0.72808   1.00
H2       -0.02068   0.33168    0.74101   1.00
H2       -0.05828   0.35165    0.71295   1.00
H2       -0.01688   0.20703    0.82745   1.00
H2       -0.01809   0.17035    0.86313   1.00
H2       -0.03048   0.21835    0.87580   1.00
H2       0.04875    0.15359    0.83917   1.00
H2       0.05426    0.19435    0.80878   1.00
H2       0.08878    0.18449    0.84573   1.00
H2       0.14798    0.29942    0.88661   1.00
H2       0.10565    0.32037    0.86676   1.00
H2       0.10965    0.31396    0.91782   1.00
H2       0.10584    0.20354    0.91760   1.00
H2       0.14788    0.23279    0.91621   1.00
H2       0.10915    0.24556    0.94761   1.00
H2       -0.03656   0.27927    0.90553   1.00
H2       -0.02381   0.30663    0.94739   1.00
H2       -0.00834   0.32189    0.90117   1.00
H2       0.00956    0.25513    0.98310   1.00
H2       -0.00622   0.22158    0.94736   1.00
H2       0.04343    0.22362    0.96130   1.00
C4       0.52084    0.24719    0.75116   1.00
C4       0.47912    0.24785    0.75145   1.00
C3       0.54364    0.22724    0.77943   1.00
C3       0.45616    0.23169    0.78194   1.00
C3       0.54123    0.26802    0.72141   1.00
C3       0.45886    0.26549    0.71962   1.00
C2       0.60512    0.24885    0.74966   1.00
C2       0.39488    0.25115    0.75034   1.00
C3       0.58462    0.22822    0.77886   1.00
C3       0.41519    0.23296    0.78124   1.00
C3       0.58258    0.26804    0.72091   1.00
C3       0.41762    0.26794    0.72029   1.00
H1       0.53115    0.21131    0.80119   1.00
H1       0.46852    0.21874    0.80566   1.00
C5       0.52020    0.28856    0.69225   1.00
C5       0.47980    0.28089    0.68745   1.00
H1       0.59955    0.21348    0.80023   1.00
H1       0.40010    0.22050    0.80392   1.00
H1       0.59680    0.28221    0.69877   1.00
H1       0.40368    0.28284    0.69853   1.00
O3       0.53961    0.31377    0.66766   1.00
O3       0.46099    0.29094    0.65321   1.00
Si1      0.54247    0.36006    0.67862   1.00
Si1      0.45279    0.25712    0.62071   1.00
C6       0.57538    0.37343    0.64131   1.00
C6       0.49598    0.38064    0.67075   1.00
C6       0.56253    0.36875    0.72528   1.00
C6       0.46693    0.20874    0.63169   1.00
C6       0.40198    0.25905    0.61448   1.00
C6       0.47477    0.27252    0.57686   1.00
C6       0.61194    0.34638    0.63630   1.00
H2       0.55791    0.36895    0.61504   1.00
C6       0.59147    0.41621    0.63823   1.00
H2       0.48358    0.36081    0.64915   1.00
C6       0.46634    0.38124    0.70547   1.00
C6       0.49336    0.42226    0.65212   1.00
H2       0.58831    0.34996    0.72510   1.00
C6       0.57772    0.41099    0.73401   1.00
C6       0.53849    0.35752    0.76270   1.00
C6       0.51071    0.20097    0.64196   1.00
C6       0.44225    0.18421    0.66134   1.00
H2       0.46212    0.19386    0.60394   1.00
H2       0.39051    0.24747    0.64183   1.00
C6       0.38378    0.30078    0.61041   1.00
C6       0.38393    0.23366    0.58114   1.00
H2       0.45375    0.29300    0.56446   1.00
C6       0.51336    0.29627    0.58089   1.00
C6       0.48244    0.24119    0.54448   1.00
H2       0.60346    0.31597    0.63186   1.00
H2       0.63090    0.34770    0.66191   1.00
H2       0.62917    0.35486    0.61082   1.00
H2       0.59608    0.42396    0.60762   1.00
H2       0.57178    0.43776    0.65063   1.00
H2       0.61964    0.41961    0.65275   1.00
H2       0.43672    0.38677    0.69494   1.00
H2       0.46532    0.35345    0.72079   1.00
H2       0.47352    0.40418    0.72637   1.00
H2       0.50862    0.42349    0.62420   1.00
H2       0.46308    0.43037    0.64605   1.00
H2       0.50550    0.44437    0.67161   1.00
H2       0.55514    0.43274    0.72830   1.00
H2       0.58708    0.41435    0.76436   1.00
H2       0.60332    0.41787    0.71663   1.00
H2       0.51902    0.38099    0.77192   1.00
H2       0.52068    0.33168    0.75899   1.00
H2       0.55828    0.35165    0.78705   1.00
H2       0.51688    0.20703    0.67255   1.00
H2       0.51809    0.17035    0.63687   1.00
H2       0.53048    0.21835    0.62420   1.00
H2       0.45125    0.15359    0.66083   1.00
H2       0.44574    0.19435    0.69122   1.00
H2       0.41122    0.18449    0.65427   1.00
H2       0.35202    0.29942    0.61339   1.00
H2       0.39435    0.32037    0.63324   1.00
H2       0.39035    0.31396    0.58218   1.00
H2       0.39416    0.20354    0.58240   1.00
H2       0.35212    0.23279    0.58379   1.00
H2       0.39085    0.24556    0.55239   1.00
H2       0.53656    0.27927    0.59447   1.00
H2       0.52381    0.30663    0.55261   1.00
H2       0.50834    0.32189    0.59883   1.00
H2       0.49044    0.25513    0.51690   1.00
H2       0.50622    0.22158    0.55264   1.00
H2       0.45657    0.22362    0.53870   1.00
C4       0.24884    -0.02084   0.74719   1.00
C4       0.24855    0.02088    0.74785   1.00
C3       0.22057    -0.04364   0.72724   1.00
C3       0.21806    0.04384    0.73169   1.00
C3       0.27859    -0.04123   0.76802   1.00
C3       0.28038    0.04114    0.76549   1.00
C2       0.25034    -0.10512   0.74885   1.00
C2       0.24966    0.10512    0.75115   1.00
C3       0.22114    -0.08462   0.72822   1.00
C3       0.21876    0.08481    0.73296   1.00
C3       0.27909    -0.08258   0.76804   1.00
C3       0.27971    0.08238    0.76794   1.00
H1       0.19881    -0.03115   0.71131   1.00
H1       0.19434    0.03148    0.71874   1.00
C5       0.30775    -0.02020   0.78856   1.00
C5       0.31255    0.02020    0.78089   1.00
H1       0.19977    -0.09955   0.71348   1.00
H1       0.19608    0.09990    0.72050   1.00
H1       0.30123    -0.09680   0.78221   1.00
H1       0.30147    0.09632    0.78284   1.00
O3       0.33234    -0.03961   0.81377   1.00
O3       0.34679    0.03901    0.79094   1.00
Si1      0.32138    -0.04247   0.86006   1.00
Si1      0.37929    0.04721    0.75712   1.00
C6       0.35869    -0.07538   0.87343   1.00
C6       0.32925    0.00402    0.88064   1.00
C6       0.27472    -0.06253   0.86875   1.00
C6       0.36831    0.03307    0.70874   1.00
C6       0.38552    0.09802    0.75905   1.00
C6       0.42314    0.02523    0.77252   1.00
C6       0.36370    -0.11194   0.84638   1.00
H2       0.38496    -0.05791   0.86895   1.00
C6       0.36177    -0.09147   0.91621   1.00
H2       0.35085    0.01642    0.86081   1.00
C6       0.29453    0.03366    0.88124   1.00
C6       0.34788    0.00664    0.92226   1.00
H2       0.27490    -0.08831   0.84996   1.00
C6       0.26599    -0.07772   0.91099   1.00
C6       0.23730    -0.03849   0.85752   1.00
C6       0.35804    -0.01071   0.70097   1.00
C6       0.33866    0.05775    0.68421   1.00
H2       0.39606    0.03788    0.69386   1.00
H2       0.35817    0.10949    0.74747   1.00
C6       0.38959    0.11622    0.80078   1.00
C6       0.41886    0.11607    0.73366   1.00
H2       0.43554    0.04625    0.79300   1.00
C6       0.41911    -0.01336   0.79627   1.00
C6       0.45552    0.01756    0.74119   1.00
H2       0.36814    -0.10346   0.81597   1.00
H2       0.33809    -0.13090   0.84770   1.00
H2       0.38918    -0.12917   0.85486   1.00
H2       0.39238    -0.09608   0.92396   1.00
H2       0.34937    -0.07178   0.93776   1.00
H2       0.34725    -0.11964   0.91961   1.00
H2       0.30506    0.06328    0.88677   1.00
H2       0.27921    0.03468    0.85345   1.00
H2       0.27363    0.02648    0.90418   1.00
H2       0.37580    -0.00862   0.92349   1.00
H2       0.35395    0.03692    0.93037   1.00
H2       0.32839    -0.00550   0.94437   1.00
H2       0.27170    -0.05514   0.93274   1.00
H2       0.23564    -0.08708   0.91435   1.00
H2       0.28337    -0.10332   0.91787   1.00
H2       0.22808    -0.01902   0.88099   1.00
H2       0.24101    -0.02068   0.83168   1.00
H2       0.21295    -0.05828   0.85165   1.00
H2       0.32745    -0.01688   0.70703   1.00
H2       0.36313    -0.01809   0.67035   1.00
H2       0.37580    -0.03048   0.71835   1.00
H2       0.33917    0.04875    0.65359   1.00
H2       0.30878    0.05426    0.69435   1.00
H2       0.34573    0.08878    0.68449   1.00
H2       0.38661    0.14798    0.79942   1.00
H2       0.36676    0.10565    0.82037   1.00
H2       0.41782    0.10965    0.81396   1.00
H2       0.41760    0.10584    0.70354   1.00
H2       0.41621    0.14788    0.73279   1.00
H2       0.44761    0.10915    0.74556   1.00
H2       0.40553    -0.03656   0.77927   1.00
H2       0.44739    -0.02381   0.80663   1.00
H2       0.40117    -0.00834   0.82189   1.00
H2       0.48310    0.00956    0.75513   1.00
H2       0.44736    -0.00622   0.72158   1.00
H2       0.46130    0.04343    0.72362   1.00
C4       0.24719    0.24884    0.47916   1.00
C4       0.24785    0.24855    0.52088   1.00
C3       0.22724    0.22057    0.45636   1.00
C3       0.23169    0.21806    0.54384   1.00
C3       0.26802    0.27859    0.45877   1.00
C3       0.26549    0.28038    0.54114   1.00
C2       0.24885    0.25034    0.39488   1.00
C2       0.25115    0.24966    0.60512   1.00
C3       0.22822    0.22114    0.41538   1.00
C3       0.23296    0.21876    0.58481   1.00
C3       0.26804    0.27909    0.41742   1.00
C3       0.26794    0.27971    0.58238   1.00
H1       0.21131    0.19881    0.46885   1.00
H1       0.21874    0.19434    0.53148   1.00
C5       0.28856    0.30775    0.47980   1.00
C5       0.28089    0.31255    0.52020   1.00
H1       0.21348    0.19977    0.40045   1.00
H1       0.22050    0.19608    0.59990   1.00
H1       0.28221    0.30123    0.40320   1.00
H1       0.28284    0.30147    0.59632   1.00
O3       0.31377    0.33234    0.46039   1.00
O3       0.29094    0.34679    0.53901   1.00
Si1      0.36006    0.32138    0.45753   1.00
Si1      0.25712    0.37929    0.54721   1.00
C6       0.37343    0.35869    0.42462   1.00
C6       0.38064    0.32925    0.50402   1.00
C6       0.36875    0.27472    0.43747   1.00
C6       0.20874    0.36831    0.53307   1.00
C6       0.25905    0.38552    0.59802   1.00
C6       0.27252    0.42314    0.52523   1.00
C6       0.34638    0.36370    0.38806   1.00
H2       0.36895    0.38496    0.44209   1.00
C6       0.41621    0.36177    0.40853   1.00
H2       0.36081    0.35085    0.51642   1.00
C6       0.38124    0.29453    0.53366   1.00
C6       0.42226    0.34788    0.50664   1.00
H2       0.34996    0.27490    0.41169   1.00
C6       0.41099    0.26599    0.42228   1.00
C6       0.35752    0.23730    0.46151   1.00
C6       0.20097    0.35804    0.48929   1.00
C6       0.18421    0.33866    0.55775   1.00
H2       0.19386    0.39606    0.53788   1.00
H2       0.24747    0.35817    0.60949   1.00
C6       0.30078    0.38959    0.61622   1.00
C6       0.23366    0.41886    0.61607   1.00
H2       0.29300    0.43554    0.54625   1.00
C6       0.29627    0.41911    0.48664   1.00
C6       0.24119    0.45552    0.51756   1.00
H2       0.31597    0.36814    0.39654   1.00
H2       0.34770    0.33809    0.36910   1.00
H2       0.35486    0.38918    0.37083   1.00
H2       0.42396    0.39238    0.40392   1.00
H2       0.43776    0.34937    0.42822   1.00
H2       0.41961    0.34725    0.38036   1.00
H2       0.38677    0.30506    0.56328   1.00
H2       0.35345    0.27921    0.53468   1.00
H2       0.40418    0.27363    0.52648   1.00
H2       0.42349    0.37580    0.49138   1.00
H2       0.43037    0.35395    0.53692   1.00
H2       0.44437    0.32839    0.49450   1.00
H2       0.43274    0.27170    0.44486   1.00
H2       0.41435    0.23564    0.41292   1.00
H2       0.41787    0.28337    0.39668   1.00
H2       0.38099    0.22808    0.48098   1.00
H2       0.33168    0.24101    0.47932   1.00
H2       0.35165    0.21295    0.44172   1.00
H2       0.20703    0.32745    0.48312   1.00
H2       0.17035    0.36313    0.48191   1.00
H2       0.21835    0.37580    0.46952   1.00
H2       0.15359    0.33917    0.54875   1.00
H2       0.19435    0.30878    0.55426   1.00
H2       0.18449    0.34573    0.58878   1.00
H2       0.29942    0.38661    0.64798   1.00
H2       0.32037    0.36676    0.60565   1.00
H2       0.31396    0.41782    0.60965   1.00
H2       0.20354    0.41760    0.60584   1.00
H2       0.23279    0.41621    0.64788   1.00
H2       0.24556    0.44761    0.60915   1.00
H2       0.27927    0.40553    0.46344   1.00
H2       0.30663    0.44739    0.47619   1.00
H2       0.32189    0.40117    0.49166   1.00
H2       0.25513    0.48310    0.50956   1.00
H2       0.22158    0.44736    0.49378   1.00
H2       0.22362    0.46130    0.54343   1.00
C4       0.24719    0.75116    0.52084   1.00
C4       0.24785    0.75145    0.47912   1.00
C3       0.22724    0.77943    0.54364   1.00
C3       0.23169    0.78194    0.45616   1.00
C3       0.26802    0.72141    0.54123   1.00
C3       0.26549    0.71962    0.45886   1.00
C2       0.24885    0.74966    0.60512   1.00
C2       0.25115    0.75034    0.39488   1.00
C3       0.22822    0.77886    0.58462   1.00
C3       0.23296    0.78124    0.41519   1.00
C3       0.26804    0.72091    0.58258   1.00
C3       0.26794    0.72029    0.41762   1.00
H1       0.21131    0.80119    0.53115   1.00
H1       0.21874    0.80566    0.46852   1.00
C5       0.28856    0.69225    0.52020   1.00
C5       0.28089    0.68745    0.47980   1.00
H1       0.21348    0.80023    0.59955   1.00
H1       0.22050    0.80392    0.40010   1.00
H1       0.28221    0.69877    0.59680   1.00
H1       0.28284    0.69853    0.40368   1.00
O3       0.31377    0.66766    0.53961   1.00
O3       0.29094    0.65321    0.46099   1.00
Si1      0.36006    0.67862    0.54247   1.00
Si1      0.25712    0.62071    0.45279   1.00
C6       0.37343    0.64131    0.57538   1.00
C6       0.38064    0.67075    0.49598   1.00
C6       0.36875    0.72528    0.56253   1.00
C6       0.20874    0.63169    0.46693   1.00
C6       0.25905    0.61448    0.40198   1.00
C6       0.27252    0.57686    0.47477   1.00
C6       0.34638    0.63630    0.61194   1.00
H2       0.36895    0.61504    0.55791   1.00
C6       0.41621    0.63823    0.59147   1.00
H2       0.36081    0.64915    0.48358   1.00
C6       0.38124    0.70547    0.46634   1.00
C6       0.42226    0.65212    0.49336   1.00
H2       0.34996    0.72510    0.58831   1.00
C6       0.41099    0.73401    0.57772   1.00
C6       0.35752    0.76270    0.53849   1.00
C6       0.20097    0.64196    0.51071   1.00
C6       0.18421    0.66134    0.44225   1.00
H2       0.19386    0.60394    0.46212   1.00
H2       0.24747    0.64183    0.39051   1.00
C6       0.30078    0.61041    0.38378   1.00
C6       0.23366    0.58114    0.38393   1.00
H2       0.29300    0.56446    0.45375   1.00
C6       0.29627    0.58089    0.51336   1.00
C6       0.24119    0.54448    0.48244   1.00
H2       0.31597    0.63186    0.60346   1.00
H2       0.34770    0.66191    0.63090   1.00
H2       0.35486    0.61082    0.62917   1.00
H2       0.42396    0.60762    0.59608   1.00
H2       0.43776    0.65063    0.57178   1.00
H2       0.41961    0.65275    0.61964   1.00
H2       0.38677    0.69494    0.43672   1.00
H2       0.35345    0.72079    0.46532   1.00
H2       0.40418    0.72637    0.47352   1.00
H2       0.42349    0.62420    0.50862   1.00
H2       0.43037    0.64605    0.46308   1.00
H2       0.44437    0.67161    0.50550   1.00
H2       0.43274    0.72830    0.55514   1.00
H2       0.41435    0.76436    0.58708   1.00
H2       0.41787    0.71663    0.60332   1.00
H2       0.38099    0.77192    0.51902   1.00
H2       0.33168    0.75899    0.52068   1.00
H2       0.35165    0.78705    0.55828   1.00
H2       0.20703    0.67255    0.51688   1.00
H2       0.17035    0.63687    0.51809   1.00
H2       0.21835    0.62420    0.53048   1.00
H2       0.15359    0.66083    0.45125   1.00
H2       0.19435    0.69122    0.44574   1.00
H2       0.18449    0.65427    0.41122   1.00
H2       0.29942    0.61339    0.35202   1.00
H2       0.32037    0.63324    0.39435   1.00
H2       0.31396    0.58218    0.39035   1.00
H2       0.20354    0.58240    0.39416   1.00
H2       0.23279    0.58379    0.35212   1.00
H2       0.24556    0.55239    0.39085   1.00
H2       0.27927    0.59447    0.53656   1.00
H2       0.30663    0.55261    0.52381   1.00
H2       0.32189    0.59883    0.50834   1.00
H2       0.25513    0.51690    0.49044   1.00
H2       0.22158    0.55264    0.50622   1.00
H2       0.22362    0.53870    0.45657   1.00
C4       0.25116    1.02084    0.24719   1.00
C4       0.25145    0.97912    0.24785   1.00
C3       0.27943    1.04364    0.22724   1.00
C3       0.28194    0.95616    0.23169   1.00
C3       0.22141    1.04123    0.26802   1.00
C3       0.21962    0.95886    0.26549   1.00
C2       0.24966    1.10512    0.24885   1.00
C2       0.25034    0.89488    0.25115   1.00
C3       0.27886    1.08462    0.22822   1.00
C3       0.28124    0.91519    0.23296   1.00
C3       0.22091    1.08258    0.26804   1.00
C3       0.22029    0.91762    0.26794   1.00
H1       0.30119    1.03115    0.21131   1.00
H1       0.30566    0.96852    0.21874   1.00
C5       0.19225    1.02020    0.28856   1.00
C5       0.18745    0.97980    0.28089   1.00
H1       0.30023    1.09955    0.21348   1.00
H1       0.30392    0.90010    0.22050   1.00
H1       0.19877    1.09680    0.28221   1.00
H1       0.19853    0.90368    0.28284   1.00
O3       0.16766    1.03961    0.31377   1.00
O3       0.15321    0.96099    0.29094   1.00
Si1      0.17862    1.04247    0.36006   1.00
Si1      0.12071    0.95279    0.25712   1.00
C6       0.14131    1.07538    0.37343   1.00
C6       0.17075    0.99598    0.38064   1.00
C6       0.22528    1.06253    0.36875   1.00
C6       0.13169    0.96693    0.20874   1.00
C6       0.11448    0.90198    0.25905   1.00
C6       0.07686    0.97477    0.27252   1.00
C6       0.13630    1.11194    0.34638   1.00
H2       0.11504    1.05791    0.36895   1.00
C6       0.13823    1.09147    0.41621   1.00
H2       0.14915    0.98358    0.36081   1.00
C6       0.20547    0.96634    0.38124   1.00
C6       0.15212    0.99336    0.42226   1.00
H2       0.22510    1.08831    0.34996   1.00
C6       0.23401    1.07772    0.41099   1.00
C6       0.26270    1.03849    0.35752   1.00
C6       0.14196    1.01071    0.20097   1.00
C6       0.16134    0.94225    0.18421   1.00
H2       0.10394    0.96212    0.19386   1.00
H2       0.14183    0.89051    0.24747   1.00
C6       0.11041    0.88378    0.30078   1.00
C6       0.08114    0.88393    0.23366   1.00
H2       0.06446    0.95375    0.29300   1.00
C6       0.08089    1.01336    0.29627   1.00
C6       0.04448    0.98244    0.24119   1.00
H2       0.13186    1.10346    0.31597   1.00
H2       0.16191    1.13090    0.34770   1.00
H2       0.11082    1.12917    0.35486   1.00
H2       0.10762    1.09608    0.42396   1.00
H2       0.15063    1.07178    0.43776   1.00
H2       0.15275    1.11964    0.41961   1.00
H2       0.19494    0.93672    0.38677   1.00
H2       0.22079    0.96532    0.35345   1.00
H2       0.22637    0.97352    0.40418   1.00
H2       0.12420    1.00862    0.42349   1.00
H2       0.14605    0.96308    0.43037   1.00
H2       0.17161    1.00550    0.44437   1.00
H2       0.22830    1.05514    0.43274   1.00
H2       0.26436    1.08708    0.41435   1.00
H2       0.21663    1.10332    0.41787   1.00
H2       0.27192    1.01902    0.38099   1.00
H2       0.25899    1.02068    0.33168   1.00
H2       0.28705    1.05828    0.35165   1.00
H2       0.17255    1.01688    0.20703   1.00
H2       0.13687    1.01809    0.17035   1.00
H2       0.12420    1.03048    0.21835   1.00
H2       0.16083    0.95125    0.15359   1.00
H2       0.19122    0.94574    0.19435   1.00
H2       0.15427    0.91122    0.18449   1.00
H2       0.11339    0.85202    0.29942   1.00
H2       0.13324    0.89435    0.32037   1.00
H2       0.08218    0.89035    0.31396   1.00
H2       0.08240    0.89416    0.20354   1.00
H2       0.08379    0.85212    0.23279   1.00
H2       0.05239    0.89085    0.24556   1.00
H2       0.09447    1.03656    0.27927   1.00
H2       0.05261    1.02381    0.30663   1.00
H2       0.09883    1.00834    0.32189   1.00
H2       0.01690    0.99044    0.25513   1.00
H2       0.05264    1.00622    0.22158   1.00
H2       0.03870    0.95657    0.22362   1.00
C4       -0.02084   0.74719    0.24884   1.00
C4       0.02088    0.74785    0.24855   1.00
C3       -0.04364   0.72724    0.22057   1.00
C3       0.04384    0.73169    0.21806   1.00
C3       -0.04123   0.76802    0.27859   1.00
C3       0.04114    0.76549    0.28038   1.00
C2       -0.10512   0.74885    0.25034   1.00
C2       0.10512    0.75115    0.24966   1.00
C3       -0.08462   0.72822    0.22114   1.00
C3       0.08481    0.73296    0.21876   1.00
C3       -0.08258   0.76804    0.27909   1.00
C3       0.08238    0.76794    0.27971   1.00
H1       -0.03115   0.71131    0.19881   1.00
H1       0.03148    0.71874    0.19434   1.00
C5       -0.02020   0.78856    0.30775   1.00
C5       0.02020    0.78089    0.31255   1.00
H1       -0.09955   0.71348    0.19977   1.00
H1       0.09990    0.72050    0.19608   1.00
H1       -0.09680   0.78221    0.30123   1.00
H1       0.09632    0.78284    0.30147   1.00
O3       -0.03961   0.81377    0.33234   1.00
O3       0.03901    0.79094    0.34679   1.00
Si1      -0.04247   0.86006    0.32138   1.00
Si1      0.04721    0.75712    0.37929   1.00
C6       -0.07538   0.87343    0.35869   1.00
C6       0.00402    0.88064    0.32925   1.00
C6       -0.06253   0.86875    0.27472   1.00
C6       0.03307    0.70874    0.36831   1.00
C6       0.09802    0.75905    0.38552   1.00
C6       0.02523    0.77252    0.42314   1.00
C6       -0.11194   0.84638    0.36370   1.00
H2       -0.05791   0.86895    0.38496   1.00
C6       -0.09147   0.91621    0.36177   1.00
H2       0.01642    0.86081    0.35085   1.00
C6       0.03366    0.88124    0.29453   1.00
C6       0.00664    0.92226    0.34788   1.00
H2       -0.08831   0.84996    0.27490   1.00
C6       -0.07772   0.91099    0.26599   1.00
C6       -0.03849   0.85752    0.23730   1.00
C6       -0.01071   0.70097    0.35804   1.00
C6       0.05775    0.68421    0.33866   1.00
H2       0.03788    0.69386    0.39606   1.00
H2       0.10949    0.74747    0.35817   1.00
C6       0.11622    0.80078    0.38959   1.00
C6       0.11607    0.73366    0.41886   1.00
H2       0.04625    0.79300    0.43554   1.00
C6       -0.01336   0.79627    0.41911   1.00
C6       0.01756    0.74119    0.45552   1.00
H2       -0.10346   0.81597    0.36814   1.00
H2       -0.13090   0.84770    0.33809   1.00
H2       -0.12917   0.85486    0.38918   1.00
H2       -0.09608   0.92396    0.39238   1.00
H2       -0.07178   0.93776    0.34937   1.00
H2       -0.11964   0.91961    0.34725   1.00
H2       0.06328    0.88677    0.30506   1.00
H2       0.03468    0.85345    0.27921   1.00
H2       0.02648    0.90418    0.27363   1.00
H2       -0.00862   0.92349    0.37580   1.00
H2       0.03692    0.93037    0.35395   1.00
H2       -0.00550   0.94437    0.32839   1.00
H2       -0.05514   0.93274    0.27170   1.00
H2       -0.08708   0.91435    0.23564   1.00
H2       -0.10332   0.91787    0.28337   1.00
H2       -0.01902   0.88099    0.22808   1.00
H2       -0.02068   0.83168    0.24101   1.00
H2       -0.05828   0.85165    0.21295   1.00
H2       -0.01688   0.70703    0.32745   1.00
H2       -0.01809   0.67035    0.36313   1.00
H2       -0.03048   0.71835    0.37580   1.00
H2       0.04875    0.65359    0.33917   1.00
H2       0.05426    0.69435    0.30878   1.00
H2       0.08878    0.68449    0.34573   1.00
H2       0.14798    0.79942    0.38661   1.00
H2       0.10565    0.82037    0.36676   1.00
H2       0.10965    0.81396    0.41782   1.00
H2       0.10584    0.70354    0.41760   1.00
H2       0.14788    0.73279    0.41621   1.00
H2       0.10915    0.74556    0.44761   1.00
H2       -0.03656   0.77927    0.40553   1.00
H2       -0.02381   0.80663    0.44739   1.00
H2       -0.00834   0.82189    0.40117   1.00
H2       0.00956    0.75513    0.48310   1.00
H2       -0.00622   0.72158    0.44736   1.00
H2       0.04343    0.72362    0.46130   1.00
C4       0.52084    0.74719    0.25116   1.00
C4       0.47912    0.74785    0.25145   1.00
C3       0.54364    0.72724    0.27943   1.00
C3       0.45616    0.73169    0.28194   1.00
C3       0.54123    0.76802    0.22141   1.00
C3       0.45886    0.76549    0.21962   1.00
C2       0.60512    0.74885    0.24966   1.00
C2       0.39488    0.75115    0.25034   1.00
C3       0.58462    0.72822    0.27886   1.00
C3       0.41519    0.73296    0.28124   1.00
C3       0.58258    0.76804    0.22091   1.00
C3       0.41762    0.76794    0.22029   1.00
H1       0.53115    0.71131    0.30119   1.00
H1       0.46852    0.71874    0.30566   1.00
C5       0.52020    0.78856    0.19225   1.00
C5       0.47980    0.78089    0.18745   1.00
H1       0.59955    0.71348    0.30023   1.00
H1       0.40010    0.72050    0.30392   1.00
H1       0.59680    0.78221    0.19877   1.00
H1       0.40368    0.78284    0.19853   1.00
O3       0.53961    0.81377    0.16766   1.00
O3       0.46099    0.79094    0.15321   1.00
Si1      0.54247    0.86006    0.17862   1.00
Si1      0.45279    0.75712    0.12071   1.00
C6       0.57538    0.87343    0.14131   1.00
C6       0.49598    0.88064    0.17075   1.00
C6       0.56253    0.86875    0.22528   1.00
C6       0.46693    0.70874    0.13169   1.00
C6       0.40198    0.75905    0.11448   1.00
C6       0.47477    0.77252    0.07686   1.00
C6       0.61194    0.84638    0.13630   1.00
H2       0.55791    0.86895    0.11504   1.00
C6       0.59147    0.91621    0.13823   1.00
H2       0.48358    0.86081    0.14915   1.00
C6       0.46634    0.88124    0.20547   1.00
C6       0.49336    0.92226    0.15212   1.00
H2       0.58831    0.84996    0.22510   1.00
C6       0.57772    0.91099    0.23401   1.00
C6       0.53849    0.85752    0.26270   1.00
C6       0.51071    0.70097    0.14196   1.00
C6       0.44225    0.68421    0.16134   1.00
H2       0.46212    0.69386    0.10394   1.00
H2       0.39051    0.74747    0.14183   1.00
C6       0.38378    0.80078    0.11041   1.00
C6       0.38393    0.73366    0.08114   1.00
H2       0.45375    0.79300    0.06446   1.00
C6       0.51336    0.79627    0.08089   1.00
C6       0.48244    0.74119    0.04448   1.00
H2       0.60346    0.81597    0.13186   1.00
H2       0.63090    0.84770    0.16191   1.00
H2       0.62917    0.85486    0.11082   1.00
H2       0.59608    0.92396    0.10762   1.00
H2       0.57178    0.93776    0.15063   1.00
H2       0.61964    0.91961    0.15275   1.00
H2       0.43672    0.88677    0.19494   1.00
H2       0.46532    0.85345    0.22079   1.00
H2       0.47352    0.90418    0.22637   1.00
H2       0.50862    0.92349    0.12420   1.00
H2       0.46308    0.93037    0.14605   1.00
H2       0.50550    0.94437    0.17161   1.00
H2       0.55514    0.93274    0.22830   1.00
H2       0.58708    0.91435    0.26436   1.00
H2       0.60332    0.91787    0.21663   1.00
H2       0.51902    0.88099    0.27192   1.00
H2       0.52068    0.83168    0.25899   1.00
H2       0.55828    0.85165    0.28705   1.00
H2       0.51688    0.70703    0.17255   1.00
H2       0.51809    0.67035    0.13687   1.00
H2       0.53048    0.71835    0.12420   1.00
H2       0.45125    0.65359    0.16083   1.00
H2       0.44574    0.69435    0.19122   1.00
H2       0.41122    0.68449    0.15427   1.00
H2       0.35202    0.79942    0.11339   1.00
H2       0.39435    0.82037    0.13324   1.00
H2       0.39035    0.81396    0.08218   1.00
H2       0.39416    0.70354    0.08240   1.00
H2       0.35212    0.73279    0.08379   1.00
H2       0.39085    0.74556    0.05239   1.00
H2       0.53656    0.77927    0.09447   1.00
H2       0.52381    0.80663    0.05261   1.00
H2       0.50834    0.82189    0.09883   1.00
H2       0.49044    0.75513    0.01690   1.00
H2       0.50622    0.72158    0.05264   1.00
H2       0.45657    0.72362    0.03870   1.00
C4       0.24884    0.47916    0.24719   1.00
C4       0.24855    0.52088    0.24785   1.00
C3       0.22057    0.45636    0.22724   1.00
C3       0.21806    0.54384    0.23169   1.00
C3       0.27859    0.45877    0.26802   1.00
C3       0.28038    0.54114    0.26549   1.00
C2       0.25034    0.39488    0.24885   1.00
C2       0.24966    0.60512    0.25115   1.00
C3       0.22114    0.41538    0.22822   1.00
C3       0.21876    0.58481    0.23296   1.00
C3       0.27909    0.41742    0.26804   1.00
C3       0.27971    0.58238    0.26794   1.00
H1       0.19881    0.46885    0.21131   1.00
H1       0.19434    0.53148    0.21874   1.00
C5       0.30775    0.47980    0.28856   1.00
C5       0.31255    0.52020    0.28089   1.00
H1       0.19977    0.40045    0.21348   1.00
H1       0.19608    0.59990    0.22050   1.00
H1       0.30123    0.40320    0.28221   1.00
H1       0.30147    0.59632    0.28284   1.00
O3       0.33234    0.46039    0.31377   1.00
O3       0.34679    0.53901    0.29094   1.00
Si1      0.32138    0.45753    0.36006   1.00
Si1      0.37929    0.54721    0.25712   1.00
C6       0.35869    0.42462    0.37343   1.00
C6       0.32925    0.50402    0.38064   1.00
C6       0.27472    0.43747    0.36875   1.00
C6       0.36831    0.53307    0.20874   1.00
C6       0.38552    0.59802    0.25905   1.00
C6       0.42314    0.52523    0.27252   1.00
C6       0.36370    0.38806    0.34638   1.00
H2       0.38496    0.44209    0.36895   1.00
C6       0.36177    0.40853    0.41621   1.00
H2       0.35085    0.51642    0.36081   1.00
C6       0.29453    0.53366    0.38124   1.00
C6       0.34788    0.50664    0.42226   1.00
H2       0.27490    0.41169    0.34996   1.00
C6       0.26599    0.42228    0.41099   1.00
C6       0.23730    0.46151    0.35752   1.00
C6       0.35804    0.48929    0.20097   1.00
C6       0.33866    0.55775    0.18421   1.00
H2       0.39606    0.53788    0.19386   1.00
H2       0.35817    0.60949    0.24747   1.00
C6       0.38959    0.61622    0.30078   1.00
C6       0.41886    0.61607    0.23366   1.00
H2       0.43554    0.54625    0.29300   1.00
C6       0.41911    0.48664    0.29627   1.00
C6       0.45552    0.51756    0.24119   1.00
H2       0.36814    0.39654    0.31597   1.00
H2       0.33809    0.36910    0.34770   1.00
H2       0.38918    0.37083    0.35486   1.00
H2       0.39238    0.40392    0.42396   1.00
H2       0.34937    0.42822    0.43776   1.00
H2       0.34725    0.38036    0.41961   1.00
H2       0.30506    0.56328    0.38677   1.00
H2       0.27921    0.53468    0.35345   1.00
H2       0.27363    0.52648    0.40418   1.00
H2       0.37580    0.49138    0.42349   1.00
H2       0.35395    0.53692    0.43037   1.00
H2       0.32839    0.49450    0.44437   1.00
H2       0.27170    0.44486    0.43274   1.00
H2       0.23564    0.41292    0.41435   1.00
H2       0.28337    0.39668    0.41787   1.00
H2       0.22808    0.48098    0.38099   1.00
H2       0.24101    0.47932    0.33168   1.00
H2       0.21295    0.44172    0.35165   1.00
H2       0.32745    0.48312    0.20703   1.00
H2       0.36313    0.48191    0.17035   1.00
H2       0.37580    0.46952    0.21835   1.00
H2       0.33917    0.54875    0.15359   1.00
H2       0.30878    0.55426    0.19435   1.00
H2       0.34573    0.58878    0.18449   1.00
H2       0.38661    0.64798    0.29942   1.00
H2       0.36676    0.60565    0.32037   1.00
H2       0.41782    0.60965    0.31396   1.00
H2       0.41760    0.60584    0.20354   1.00
H2       0.41621    0.64788    0.23279   1.00
H2       0.44761    0.60915    0.24556   1.00
H2       0.40553    0.46344    0.27927   1.00
H2       0.44739    0.47619    0.30663   1.00
H2       0.40117    0.49166    0.32189   1.00
H2       0.48310    0.50956    0.25513   1.00
H2       0.44736    0.49378    0.22158   1.00
H2       0.46130    0.54343    0.22362   1.00
C4       0.24719    0.74884    -0.02084   1.00
C4       0.24785    0.74855    0.02088   1.00
C3       0.22724    0.72057    -0.04364   1.00
C3       0.23169    0.71806    0.04384   1.00
C3       0.26802    0.77859    -0.04123   1.00
C3       0.26549    0.78038    0.04114   1.00
C2       0.24885    0.75034    -0.10512   1.00
C2       0.25115    0.74966    0.10512   1.00
C3       0.22822    0.72114    -0.08462   1.00
C3       0.23296    0.71876    0.08481   1.00
C3       0.26804    0.77909    -0.08258   1.00
C3       0.26794    0.77971    0.08238   1.00
H1       0.21131    0.69881    -0.03115   1.00
H1       0.21874    0.69434    0.03148   1.00
C5       0.28856    0.80775    -0.02020   1.00
C5       0.28089    0.81255    0.02020   1.00
H1       0.21348    0.69977    -0.09955   1.00
H1       0.22050    0.69608    0.09990   1.00
H1       0.28221    0.80123    -0.09680   1.00
H1       0.28284    0.80147    0.09632   1.00
O3       0.31377    0.83234    -0.03961   1.00
O3       0.29094    0.84679    0.03901   1.00
Si1      0.36006    0.82138    -0.04247   1.00
Si1      0.25712    0.87929    0.04721   1.00
C6       0.37343    0.85869    -0.07538   1.00
C6       0.38064    0.82925    0.00402   1.00
C6       0.36875    0.77472    -0.06253   1.00
C6       0.20874    0.86831    0.03307   1.00
C6       0.25905    0.88552    0.09802   1.00
C6       0.27252    0.92314    0.02523   1.00
C6       0.34638    0.86370    -0.11194   1.00
H2       0.36895    0.88496    -0.05791   1.00
C6       0.41621    0.86177    -0.09147   1.00
H2       0.36081    0.85085    0.01642   1.00
C6       0.38124    0.79453    0.03366   1.00
C6       0.42226    0.84788    0.00664   1.00
H2       0.34996    0.77490    -0.08831   1.00
C6       0.41099    0.76599    -0.07772   1.00
C6       0.35752    0.73730    -0.03849   1.00
C6       0.20097    0.85804    -0.01071   1.00
C6       0.18421    0.83866    0.05775   1.00
H2       0.19386    0.89606    0.03788   1.00
H2       0.24747    0.85817    0.10949   1.00
C6       0.30078    0.88959    0.11622   1.00
C6       0.23366    0.91886    0.11607   1.00
H2       0.29300    0.93554    0.04625   1.00
C6       0.29627    0.91911    -0.01336   1.00
C6       0.24119    0.95552    0.01756   1.00
H2       0.31597    0.86814    -0.10346   1.00
H2       0.34770    0.83809    -0.13090   1.00
H2       0.35486    0.88918    -0.12917   1.00
H2       0.42396    0.89238    -0.09608   1.00
H2       0.43776    0.84937    -0.07178   1.00
H2       0.41961    0.84725    -0.11964   1.00
H2       0.38677    0.80506    0.06328   1.00
H2       0.35345    0.77921    0.03468   1.00
H2       0.40418    0.77363    0.02648   1.00
H2       0.42349    0.87580    -0.00862   1.00
H2       0.43037    0.85395    0.03692   1.00
H2       0.44437    0.82839    -0.00550   1.00
H2       0.43274    0.77170    -0.05514   1.00
H2       0.41435    0.73564    -0.08708   1.00
H2       0.41787    0.78337    -0.10332   1.00
H2       0.38099    0.72808    -0.01902   1.00
H2       0.33168    0.74101    -0.02068   1.00
H2       0.35165    0.71295    -0.05828   1.00
H2       0.20703    0.82745    -0.01688   1.00
H2       0.17035    0.86313    -0.01809   1.00
H2       0.21835    0.87580    -0.03048   1.00
H2       0.15359    0.83917    0.04875   1.00
H2       0.19435    0.80878    0.05426   1.00
H2       0.18449    0.84573    0.08878   1.00
H2       0.29942    0.88661    0.14798   1.00
H2       0.32037    0.86676    0.10565   1.00
H2       0.31396    0.91782    0.10965   1.00
H2       0.20354    0.91760    0.10584   1.00
H2       0.23279    0.91621    0.14788   1.00
H2       0.24556    0.94761    0.10915   1.00
H2       0.27927    0.90553    -0.03656   1.00
H2       0.30663    0.94739    -0.02381   1.00
H2       0.32189    0.90117    -0.00834   1.00
H2       0.25513    0.98310    0.00956   1.00
H2       0.22158    0.94736    -0.00622   1.00
H2       0.22362    0.96130    0.04343   1.00
C4       0.74719    0.25116    0.52084   1.00
C4       0.74785    0.25145    0.47912   1.00
C3       0.72724    0.27943    0.54364   1.00
C3       0.73169    0.28194    0.45616   1.00
C3       0.76802    0.22141    0.54123   1.00
C3       0.76549    0.21962    0.45886   1.00
C2       0.74885    0.24966    0.60512   1.00
C2       0.75115    0.25034    0.39488   1.00
C3       0.72822    0.27886    0.58462   1.00
C3       0.73296    0.28124    0.41519   1.00
C3       0.76804    0.22091    0.58258   1.00
C3       0.76794    0.22029    0.41762   1.00
H1       0.71131    0.30119    0.53115   1.00
H1       0.71874    0.30566    0.46852   1.00
C5       0.78856    0.19225    0.52020   1.00
C5       0.78089    0.18745    0.47980   1.00
H1       0.71348    0.30023    0.59955   1.00
H1       0.72050    0.30392    0.40010   1.00
H1       0.78221    0.19877    0.59680   1.00
H1       0.78284    0.19853    0.40368   1.00
O3       0.81377    0.16766    0.53961   1.00
O3       0.79094    0.15321    0.46099   1.00
Si1      0.86006    0.17862    0.54247   1.00
Si1      0.75712    0.12071    0.45279   1.00
C6       0.87343    0.14131    0.57538   1.00
C6       0.88064    0.17075    0.49598   1.00
C6       0.86875    0.22528    0.56253   1.00
C6       0.70874    0.13169    0.46693   1.00
C6       0.75905    0.11448    0.40198   1.00
C6       0.77252    0.07686    0.47477   1.00
C6       0.84638    0.13630    0.61194   1.00
H2       0.86895    0.11504    0.55791   1.00
C6       0.91621    0.13823    0.59147   1.00
H2       0.86081    0.14915    0.48358   1.00
C6       0.88124    0.20547    0.46634   1.00
C6       0.92226    0.15212    0.49336   1.00
H2       0.84996    0.22510    0.58831   1.00
C6       0.91099    0.23401    0.57772   1.00
C6       0.85752    0.26270    0.53849   1.00
C6       0.70097    0.14196    0.51071   1.00
C6       0.68421    0.16134    0.44225   1.00
H2       0.69386    0.10394    0.46212   1.00
H2       0.74747    0.14183    0.39051   1.00
C6       0.80078    0.11041    0.38378   1.00
C6       0.73366    0.08114    0.38393   1.00
H2       0.79300    0.06446    0.45375   1.00
C6       0.79627    0.08089    0.51336   1.00
C6       0.74119    0.04448    0.48244   1.00
H2       0.81597    0.13186    0.60346   1.00
H2       0.84770    0.16191    0.63090   1.00
H2       0.85486    0.11082    0.62917   1.00
H2       0.92396    0.10762    0.59608   1.00
H2       0.93776    0.15063    0.57178   1.00
H2       0.91961    0.15275    0.61964   1.00
H2       0.88677    0.19494    0.43672   1.00
H2       0.85345    0.22079    0.46532   1.00
H2       0.90418    0.22637    0.47352   1.00
H2       0.92349    0.12420    0.50862   1.00
H2       0.93037    0.14605    0.46308   1.00
H2       0.94437    0.17161    0.50550   1.00
H2       0.93274    0.22830    0.55514   1.00
H2       0.91435    0.26436    0.58708   1.00
H2       0.91787    0.21663    0.60332   1.00
H2       0.88099    0.27192    0.51902   1.00
H2       0.83168    0.25899    0.52068   1.00
H2       0.85165    0.28705    0.55828   1.00
H2       0.70703    0.17255    0.51688   1.00
H2       0.67035    0.13687    0.51809   1.00
H2       0.71835    0.12420    0.53048   1.00
H2       0.65359    0.16083    0.45125   1.00
H2       0.69435    0.19122    0.44574   1.00
H2       0.68449    0.15427    0.41122   1.00
H2       0.79942    0.11339    0.35202   1.00
H2       0.82037    0.13324    0.39435   1.00
H2       0.81396    0.08218    0.39035   1.00
H2       0.70354    0.08240    0.39416   1.00
H2       0.73279    0.08379    0.35212   1.00
H2       0.74556    0.05239    0.39085   1.00
H2       0.77927    0.09447    0.53656   1.00
H2       0.80663    0.05261    0.52381   1.00
H2       0.82189    0.09883    0.50834   1.00
H2       0.75513    0.01690    0.49044   1.00
H2       0.72158    0.05264    0.50622   1.00
H2       0.72362    0.03870    0.45657   1.00
C4       0.75116    0.52084    0.24719   1.00
C4       0.75145    0.47912    0.24785   1.00
C3       0.77943    0.54364    0.22724   1.00
C3       0.78194    0.45616    0.23169   1.00
C3       0.72141    0.54123    0.26802   1.00
C3       0.71962    0.45886    0.26549   1.00
C2       0.74966    0.60512    0.24885   1.00
C2       0.75034    0.39488    0.25115   1.00
C3       0.77886    0.58462    0.22822   1.00
C3       0.78124    0.41519    0.23296   1.00
C3       0.72091    0.58258    0.26804   1.00
C3       0.72029    0.41762    0.26794   1.00
H1       0.80119    0.53115    0.21131   1.00
H1       0.80566    0.46852    0.21874   1.00
C5       0.69225    0.52020    0.28856   1.00
C5       0.68745    0.47980    0.28089   1.00
H1       0.80023    0.59955    0.21348   1.00
H1       0.80392    0.40010    0.22050   1.00
H1       0.69877    0.59680    0.28221   1.00
H1       0.69853    0.40368    0.28284   1.00
O3       0.66766    0.53961    0.31377   1.00
O3       0.65321    0.46099    0.29094   1.00
Si1      0.67862    0.54247    0.36006   1.00
Si1      0.62071    0.45279    0.25712   1.00
C6       0.64131    0.57538    0.37343   1.00
C6       0.67075    0.49598    0.38064   1.00
C6       0.72528    0.56253    0.36875   1.00
C6       0.63169    0.46693    0.20874   1.00
C6       0.61448    0.40198    0.25905   1.00
C6       0.57686    0.47477    0.27252   1.00
C6       0.63630    0.61194    0.34638   1.00
H2       0.61504    0.55791    0.36895   1.00
C6       0.63823    0.59147    0.41621   1.00
H2       0.64915    0.48358    0.36081   1.00
C6       0.70547    0.46634    0.38124   1.00
C6       0.65212    0.49336    0.42226   1.00
H2       0.72510    0.58831    0.34996   1.00
C6       0.73401    0.57772    0.41099   1.00
C6       0.76270    0.53849    0.35752   1.00
C6       0.64196    0.51071    0.20097   1.00
C6       0.66134    0.44225    0.18421   1.00
H2       0.60394    0.46212    0.19386   1.00
H2       0.64183    0.39051    0.24747   1.00
C6       0.61041    0.38378    0.30078   1.00
C6       0.58114    0.38393    0.23366   1.00
H2       0.56446    0.45375    0.29300   1.00
C6       0.58089    0.51336    0.29627   1.00
C6       0.54448    0.48244    0.24119   1.00
H2       0.63186    0.60346    0.31597   1.00
H2       0.66191    0.63090    0.34770   1.00
H2       0.61082    0.62917    0.35486   1.00
H2       0.60762    0.59608    0.42396   1.00
H2       0.65063    0.57178    0.43776   1.00
H2       0.65275    0.61964    0.41961   1.00
H2       0.69494    0.43672    0.38677   1.00
H2       0.72079    0.46532    0.35345   1.00
H2       0.72637    0.47352    0.40418   1.00
H2       0.62420    0.50862    0.42349   1.00
H2       0.64605    0.46308    0.43037   1.00
H2       0.67161    0.50550    0.44437   1.00
H2       0.72830    0.55514    0.43274   1.00
H2       0.76436    0.58708    0.41435   1.00
H2       0.71663    0.60332    0.41787   1.00
H2       0.77192    0.51902    0.38099   1.00
H2       0.75899    0.52068    0.33168   1.00
H2       0.78705    0.55828    0.35165   1.00
H2       0.67255    0.51688    0.20703   1.00
H2       0.63687    0.51809    0.17035   1.00
H2       0.62420    0.53048    0.21835   1.00
H2       0.66083    0.45125    0.15359   1.00
H2       0.69122    0.44574    0.19435   1.00
H2       0.65427    0.41122    0.18449   1.00
H2       0.61339    0.35202    0.29942   1.00
H2       0.63324    0.39435    0.32037   1.00
H2       0.58218    0.39035    0.31396   1.00
H2       0.58240    0.39416    0.20354   1.00
H2       0.58379    0.35212    0.23279   1.00
H2       0.55239    0.39085    0.24556   1.00
H2       0.59447    0.53656    0.27927   1.00
H2       0.55261    0.52381    0.30663   1.00
H2       0.59883    0.50834    0.32189   1.00
H2       0.51690    0.49044    0.25513   1.00
H2       0.55264    0.50622    0.22158   1.00
H2       0.53870    0.45657    0.22362   1.00
C4       0.47916    0.24719    0.24884   1.00
C4       0.52088    0.24785    0.24855   1.00
C3       0.45636    0.22724    0.22057   1.00
C3       0.54384    0.23169    0.21806   1.00
C3       0.45877    0.26802    0.27859   1.00
C3       0.54114    0.26549    0.28038   1.00
C2       0.39488    0.24885    0.25034   1.00
C2       0.60512    0.25115    0.24966   1.00
C3       0.41538    0.22822    0.22114   1.00
C3       0.58481    0.23296    0.21876   1.00
C3       0.41742    0.26804    0.27909   1.00
C3       0.58238    0.26794    0.27971   1.00
H1       0.46885    0.21131    0.19881   1.00
H1       0.53148    0.21874    0.19434   1.00
C5       0.47980    0.28856    0.30775   1.00
C5       0.52020    0.28089    0.31255   1.00
H1       0.40045    0.21348    0.19977   1.00
H1       0.59990    0.22050    0.19608   1.00
H1       0.40320    0.28221    0.30123   1.00
H1       0.59632    0.28284    0.30147   1.00
O3       0.46039    0.31377    0.33234   1.00
O3       0.53901    0.29094    0.34679   1.00
Si1      0.45753    0.36006    0.32138   1.00
Si1      0.54721    0.25712    0.37929   1.00
C6       0.42462    0.37343    0.35869   1.00
C6       0.50402    0.38064    0.32925   1.00
C6       0.43747    0.36875    0.27472   1.00
C6       0.53307    0.20874    0.36831   1.00
C6       0.59802    0.25905    0.38552   1.00
C6       0.52523    0.27252    0.42314   1.00
C6       0.38806    0.34638    0.36370   1.00
H2       0.44209    0.36895    0.38496   1.00
C6       0.40853    0.41621    0.36177   1.00
H2       0.51642    0.36081    0.35085   1.00
C6       0.53366    0.38124    0.29453   1.00
C6       0.50664    0.42226    0.34788   1.00
H2       0.41169    0.34996    0.27490   1.00
C6       0.42228    0.41099    0.26599   1.00
C6       0.46151    0.35752    0.23730   1.00
C6       0.48929    0.20097    0.35804   1.00
C6       0.55775    0.18421    0.33866   1.00
H2       0.53788    0.19386    0.39606   1.00
H2       0.60949    0.24747    0.35817   1.00
C6       0.61622    0.30078    0.38959   1.00
C6       0.61607    0.23366    0.41886   1.00
H2       0.54625    0.29300    0.43554   1.00
C6       0.48664    0.29627    0.41911   1.00
C6       0.51756    0.24119    0.45552   1.00
H2       0.39654    0.31597    0.36814   1.00
H2       0.36910    0.34770    0.33809   1.00
H2       0.37083    0.35486    0.38918   1.00
H2       0.40392    0.42396    0.39238   1.00
H2       0.42822    0.43776    0.34937   1.00
H2       0.38036    0.41961    0.34725   1.00
H2       0.56328    0.38677    0.30506   1.00
H2       0.53468    0.35345    0.27921   1.00
H2       0.52648    0.40418    0.27363   1.00
H2       0.49138    0.42349    0.37580   1.00
H2       0.53692    0.43037    0.35395   1.00
H2       0.49450    0.44437    0.32839   1.00
H2       0.44486    0.43274    0.27170   1.00
H2       0.41292    0.41435    0.23564   1.00
H2       0.39668    0.41787    0.28337   1.00
H2       0.48098    0.38099    0.22808   1.00
H2       0.47932    0.33168    0.24101   1.00
H2       0.44172    0.35165    0.21295   1.00
H2       0.48312    0.20703    0.32745   1.00
H2       0.48191    0.17035    0.36313   1.00
H2       0.46952    0.21835    0.37580   1.00
H2       0.54875    0.15359    0.33917   1.00
H2       0.55426    0.19435    0.30878   1.00
H2       0.58878    0.18449    0.34573   1.00
H2       0.64798    0.29942    0.38661   1.00
H2       0.60565    0.32037    0.36676   1.00
H2       0.60965    0.31396    0.41782   1.00
H2       0.60584    0.20354    0.41760   1.00
H2       0.64788    0.23279    0.41621   1.00
H2       0.60915    0.24556    0.44761   1.00
H2       0.46344    0.27927    0.40553   1.00
H2       0.47619    0.30663    0.44739   1.00
H2       0.49166    0.32189    0.40117   1.00
H2       0.50956    0.25513    0.48310   1.00
H2       0.49378    0.22158    0.44736   1.00
H2       0.54343    0.22362    0.46130   1.00
C4       1.02084    0.24719    0.25116   1.00
C4       0.97912    0.24785    0.25145   1.00
C3       1.04364    0.22724    0.27943   1.00
C3       0.95616    0.23169    0.28194   1.00
C3       1.04123    0.26802    0.22141   1.00
C3       0.95886    0.26549    0.21962   1.00
C2       1.10512    0.24885    0.24966   1.00
C2       0.89488    0.25115    0.25034   1.00
C3       1.08462    0.22822    0.27886   1.00
C3       0.91519    0.23296    0.28124   1.00
C3       1.08258    0.26804    0.22091   1.00
C3       0.91762    0.26794    0.22029   1.00
H1       1.03115    0.21131    0.30119   1.00
H1       0.96852    0.21874    0.30566   1.00
C5       1.02020    0.28856    0.19225   1.00
C5       0.97980    0.28089    0.18745   1.00
H1       1.09955    0.21348    0.30023   1.00
H1       0.90010    0.22050    0.30392   1.00
H1       1.09680    0.28221    0.19877   1.00
H1       0.90368    0.28284    0.19853   1.00
O3       1.03961    0.31377    0.16766   1.00
O3       0.96099    0.29094    0.15321   1.00
Si1      1.04247    0.36006    0.17862   1.00
Si1      0.95279    0.25712    0.12071   1.00
C6       1.07538    0.37343    0.14131   1.00
C6       0.99598    0.38064    0.17075   1.00
C6       1.06253    0.36875    0.22528   1.00
C6       0.96693    0.20874    0.13169   1.00
C6       0.90198    0.25905    0.11448   1.00
C6       0.97477    0.27252    0.07686   1.00
C6       1.11194    0.34638    0.13630   1.00
H2       1.05791    0.36895    0.11504   1.00
C6       1.09147    0.41621    0.13823   1.00
H2       0.98358    0.36081    0.14915   1.00
C6       0.96634    0.38124    0.20547   1.00
C6       0.99336    0.42226    0.15212   1.00
H2       1.08831    0.34996    0.22510   1.00
C6       1.07772    0.41099    0.23401   1.00
C6       1.03849    0.35752    0.26270   1.00
C6       1.01071    0.20097    0.14196   1.00
C6       0.94225    0.18421    0.16134   1.00
H2       0.96212    0.19386    0.10394   1.00
H2       0.89051    0.24747    0.14183   1.00
C6       0.88378    0.30078    0.11041   1.00
C6       0.88393    0.23366    0.08114   1.00
H2       0.95375    0.29300    0.06446   1.00
C6       1.01336    0.29627    0.08089   1.00
C6       0.98244    0.24119    0.04448   1.00
H2       1.10346    0.31597    0.13186   1.00
H2       1.13090    0.34770    0.16191   1.00
H2       1.12917    0.35486    0.11082   1.00
H2       1.09608    0.42396    0.10762   1.00
H2       1.07178    0.43776    0.15063   1.00
H2       1.11964    0.41961    0.15275   1.00
H2       0.93672    0.38677    0.19494   1.00
H2       0.96532    0.35345    0.22079   1.00
H2       0.97352    0.40418    0.22637   1.00
H2       1.00862    0.42349    0.12420   1.00
H2       0.96308    0.43037    0.14605   1.00
H2       1.00550    0.44437    0.17161   1.00
H2       1.05514    0.43274    0.22830   1.00
H2       1.08708    0.41435    0.26436   1.00
H2       1.10332    0.41787    0.21663   1.00
H2       1.01902    0.38099    0.27192   1.00
H2       1.02068    0.33168    0.25899   1.00
H2       1.05828    0.35165    0.28705   1.00
H2       1.01688    0.20703    0.17255   1.00
H2       1.01809    0.17035    0.13687   1.00
H2       1.03048    0.21835    0.12420   1.00
H2       0.95125    0.15359    0.16083   1.00
H2       0.94574    0.19435    0.19122   1.00
H2       0.91122    0.18449    0.15427   1.00
H2       0.85202    0.29942    0.11339   1.00
H2       0.89435    0.32037    0.13324   1.00
H2       0.89035    0.31396    0.08218   1.00
H2       0.89416    0.20354    0.08240   1.00
H2       0.85212    0.23279    0.08379   1.00
H2       0.89085    0.24556    0.05239   1.00
H2       1.03656    0.27927    0.09447   1.00
H2       1.02381    0.30663    0.05261   1.00
H2       1.00834    0.32189    0.09883   1.00
H2       0.99044    0.25513    0.01690   1.00
H2       1.00622    0.22158    0.05264   1.00
H2       0.95657    0.22362    0.03870   1.00
C4       0.74884    -0.02084   0.24719   1.00
C4       0.74855    0.02088    0.24785   1.00
C3       0.72057    -0.04364   0.22724   1.00
C3       0.71806    0.04384    0.23169   1.00
C3       0.77859    -0.04123   0.26802   1.00
C3       0.78038    0.04114    0.26549   1.00
C2       0.75034    -0.10512   0.24885   1.00
C2       0.74966    0.10512    0.25115   1.00
C3       0.72114    -0.08462   0.22822   1.00
C3       0.71876    0.08481    0.23296   1.00
C3       0.77909    -0.08258   0.26804   1.00
C3       0.77971    0.08238    0.26794   1.00
H1       0.69881    -0.03115   0.21131   1.00
H1       0.69434    0.03148    0.21874   1.00
C5       0.80775    -0.02020   0.28856   1.00
C5       0.81255    0.02020    0.28089   1.00
H1       0.69977    -0.09955   0.21348   1.00
H1       0.69608    0.09990    0.22050   1.00
H1       0.80123    -0.09680   0.28221   1.00
H1       0.80147    0.09632    0.28284   1.00
O3       0.83234    -0.03961   0.31377   1.00
O3       0.84679    0.03901    0.29094   1.00
Si1      0.82138    -0.04247   0.36006   1.00
Si1      0.87929    0.04721    0.25712   1.00
C6       0.85869    -0.07538   0.37343   1.00
C6       0.82925    0.00402    0.38064   1.00
C6       0.77472    -0.06253   0.36875   1.00
C6       0.86831    0.03307    0.20874   1.00
C6       0.88552    0.09802    0.25905   1.00
C6       0.92314    0.02523    0.27252   1.00
C6       0.86370    -0.11194   0.34638   1.00
H2       0.88496    -0.05791   0.36895   1.00
C6       0.86177    -0.09147   0.41621   1.00
H2       0.85085    0.01642    0.36081   1.00
C6       0.79453    0.03366    0.38124   1.00
C6       0.84788    0.00664    0.42226   1.00
H2       0.77490    -0.08831   0.34996   1.00
C6       0.76599    -0.07772   0.41099   1.00
C6       0.73730    -0.03849   0.35752   1.00
C6       0.85804    -0.01071   0.20097   1.00
C6       0.83866    0.05775    0.18421   1.00
H2       0.89606    0.03788    0.19386   1.00
H2       0.85817    0.10949    0.24747   1.00
C6       0.88959    0.11622    0.30078   1.00
C6       0.91886    0.11607    0.23366   1.00
H2       0.93554    0.04625    0.29300   1.00
C6       0.91911    -0.01336   0.29627   1.00
C6       0.95552    0.01756    0.24119   1.00
H2       0.86814    -0.10346   0.31597   1.00
H2       0.83809    -0.13090   0.34770   1.00
H2       0.88918    -0.12917   0.35486   1.00
H2       0.89238    -0.09608   0.42396   1.00
H2       0.84937    -0.07178   0.43776   1.00
H2       0.84725    -0.11964   0.41961   1.00
H2       0.80506    0.06328    0.38677   1.00
H2       0.77921    0.03468    0.35345   1.00
H2       0.77363    0.02648    0.40418   1.00
H2       0.87580    -0.00862   0.42349   1.00
H2       0.85395    0.03692    0.43037   1.00
H2       0.82839    -0.00550   0.44437   1.00
H2       0.77170    -0.05514   0.43274   1.00
H2       0.73564    -0.08708   0.41435   1.00
H2       0.78337    -0.10332   0.41787   1.00
H2       0.72808    -0.01902   0.38099   1.00
H2       0.74101    -0.02068   0.33168   1.00
H2       0.71295    -0.05828   0.35165   1.00
H2       0.82745    -0.01688   0.20703   1.00
H2       0.86313    -0.01809   0.17035   1.00
H2       0.87580    -0.03048   0.21835   1.00
H2       0.83917    0.04875    0.15359   1.00
H2       0.80878    0.05426    0.19435   1.00
H2       0.84573    0.08878    0.18449   1.00
H2       0.88661    0.14798    0.29942   1.00
H2       0.86676    0.10565    0.32037   1.00
H2       0.91782    0.10965    0.31396   1.00
H2       0.91760    0.10584    0.20354   1.00
H2       0.91621    0.14788    0.23279   1.00
H2       0.94761    0.10915    0.24556   1.00
H2       0.90553    -0.03656   0.27927   1.00
H2       0.94739    -0.02381   0.30663   1.00
H2       0.90117    -0.00834   0.32189   1.00
H2       0.98310    0.00956    0.25513   1.00
H2       0.94736    -0.00622   0.22158   1.00
H2       0.96130    0.04343    0.22362   1.00
C4       0.74719    0.24884    -0.02084   1.00
C4       0.74785    0.24855    0.02088   1.00
C3       0.72724    0.22057    -0.04364   1.00
C3       0.73169    0.21806    0.04384   1.00
C3       0.76802    0.27859    -0.04123   1.00
C3       0.76549    0.28038    0.04114   1.00
C2       0.74885    0.25034    -0.10512   1.00
C2       0.75115    0.24966    0.10512   1.00
C3       0.72822    0.22114    -0.08462   1.00
C3       0.73296    0.21876    0.08481   1.00
C3       0.76804    0.27909    -0.08258   1.00
C3       0.76794    0.27971    0.08238   1.00
H1       0.71131    0.19881    -0.03115   1.00
H1       0.71874    0.19434    0.03148   1.00
C5       0.78856    0.30775    -0.02020   1.00
C5       0.78089    0.31255    0.02020   1.00
H1       0.71348    0.19977    -0.09955   1.00
H1       0.72050    0.19608    0.09990   1.00
H1       0.78221    0.30123    -0.09680   1.00
H1       0.78284    0.30147    0.09632   1.00
O3       0.81377    0.33234    -0.03961   1.00
O3       0.79094    0.34679    0.03901   1.00
Si1      0.86006    0.32138    -0.04247   1.00
Si1      0.75712    0.37929    0.04721   1.00
C6       0.87343    0.35869    -0.07538   1.00
C6       0.88064    0.32925    0.00402   1.00
C6       0.86875    0.27472    -0.06253   1.00
C6       0.70874    0.36831    0.03307   1.00
C6       0.75905    0.38552    0.09802   1.00
C6       0.77252    0.42314    0.02523   1.00
C6       0.84638    0.36370    -0.11194   1.00
H2       0.86895    0.38496    -0.05791   1.00
C6       0.91621    0.36177    -0.09147   1.00
H2       0.86081    0.35085    0.01642   1.00
C6       0.88124    0.29453    0.03366   1.00
C6       0.92226    0.34788    0.00664   1.00
H2       0.84996    0.27490    -0.08831   1.00
C6       0.91099    0.26599    -0.07772   1.00
C6       0.85752    0.23730    -0.03849   1.00
C6       0.70097    0.35804    -0.01071   1.00
C6       0.68421    0.33866    0.05775   1.00
H2       0.69386    0.39606    0.03788   1.00
H2       0.74747    0.35817    0.10949   1.00
C6       0.80078    0.38959    0.11622   1.00
C6       0.73366    0.41886    0.11607   1.00
H2       0.79300    0.43554    0.04625   1.00
C6       0.79627    0.41911    -0.01336   1.00
C6       0.74119    0.45552    0.01756   1.00
H2       0.81597    0.36814    -0.10346   1.00
H2       0.84770    0.33809    -0.13090   1.00
H2       0.85486    0.38918    -0.12917   1.00
H2       0.92396    0.39238    -0.09608   1.00
H2       0.93776    0.34937    -0.07178   1.00
H2       0.91961    0.34725    -0.11964   1.00
H2       0.88677    0.30506    0.06328   1.00
H2       0.85345    0.27921    0.03468   1.00
H2       0.90418    0.27363    0.02648   1.00
H2       0.92349    0.37580    -0.00862   1.00
H2       0.93037    0.35395    0.03692   1.00
H2       0.94437    0.32839    -0.00550   1.00
H2       0.93274    0.27170    -0.05514   1.00
H2       0.91435    0.23564    -0.08708   1.00
H2       0.91787    0.28337    -0.10332   1.00
H2       0.88099    0.22808    -0.01902   1.00
H2       0.83168    0.24101    -0.02068   1.00
H2       0.85165    0.21295    -0.05828   1.00
H2       0.70703    0.32745    -0.01688   1.00
H2       0.67035    0.36313    -0.01809   1.00
H2       0.71835    0.37580    -0.03048   1.00
H2       0.65359    0.33917    0.04875   1.00
H2       0.69435    0.30878    0.05426   1.00
H2       0.68449    0.34573    0.08878   1.00
H2       0.79942    0.38661    0.14798   1.00
H2       0.82037    0.36676    0.10565   1.00
H2       0.81396    0.41782    0.10965   1.00
H2       0.70354    0.41760    0.10584   1.00
H2       0.73279    0.41621    0.14788   1.00
H2       0.74556    0.44761    0.10915   1.00
H2       0.77927    0.40553    -0.03656   1.00
H2       0.80663    0.44739    -0.02381   1.00
H2       0.82189    0.40117    -0.00834   1.00
H2       0.75513    0.48310    0.00956   1.00
H2       0.72158    0.44736    -0.00622   1.00
H2       0.72362    0.46130    0.04343   1.00
C4       0.91219    0.91616    1.18584   1.00
C4       0.91285    0.91645    1.14412   1.00
C3       0.89224    0.94443    1.20864   1.00
C3       0.89669    0.94694    1.12116   1.00
C3       0.93302    0.88641    1.20623   1.00
C3       0.93049    0.88462    1.12386   1.00
C2       0.91385    0.91466    1.27012   1.00
C2       0.91615    0.91534    1.05988   1.00
C3       0.89322    0.94386    1.24962   1.00
C3       0.89796    0.94624    1.08019   1.00
C3       0.93304    0.88591    1.24758   1.00
C3       0.93294    0.88529    1.08262   1.00
H1       0.87631    0.96619    1.19615   1.00
H1       0.88374    0.97066    1.13352   1.00
C5       0.95356    0.85725    1.18520   1.00
C5       0.94589    0.85245    1.14480   1.00
H1       0.87848    0.96523    1.26455   1.00
H1       0.88550    0.96892    1.06510   1.00
H1       0.94721    0.86377    1.26180   1.00
H1       0.94784    0.86353    1.06868   1.00
O3       0.97877    0.83266    1.20461   1.00
O3       0.95594    0.81821    1.12599   1.00
Si1      1.02506    0.84362    1.20747   1.00
Si1      0.92212    0.78571    1.11779   1.00
C6       1.03843    0.80631    1.24038   1.00
C6       1.04564    0.83575    1.16098   1.00
C6       1.03375    0.89028    1.22753   1.00
C6       0.87374    0.79669    1.13193   1.00
C6       0.92405    0.77948    1.06698   1.00
C6       0.93752    0.74186    1.13977   1.00
C6       1.01138    0.80130    1.27694   1.00
H2       1.03395    0.78004    1.22291   1.00
C6       1.08121    0.80323    1.25647   1.00
H2       1.02581    0.81415    1.14858   1.00
C6       1.04624    0.87047    1.13134   1.00
C6       1.08726    0.81712    1.15836   1.00
H2       1.01496    0.89010    1.25331   1.00
C6       1.07599    0.89901    1.24272   1.00
C6       1.02252    0.92770    1.20349   1.00
C6       0.86597    0.80696    1.17571   1.00
C6       0.84921    0.82634    1.10725   1.00
H2       0.85886    0.76894    1.12712   1.00
H2       0.91247    0.80683    1.05551   1.00
C6       0.96578    0.77541    1.04878   1.00
C6       0.89866    0.74614    1.04893   1.00
H2       0.95800    0.72946    1.11875   1.00
C6       0.96127    0.74589    1.17836   1.00
C6       0.90619    0.70948    1.14744   1.00
H2       0.98097    0.79686    1.26846   1.00
H2       1.01270    0.82691    1.29590   1.00
H2       1.01986    0.77582    1.29417   1.00
H2       1.08896    0.77262    1.26108   1.00
H2       1.10276    0.81563    1.23678   1.00
H2       1.08461    0.81775    1.28464   1.00
H2       1.05177    0.85994    1.10172   1.00
H2       1.01845    0.88579    1.13032   1.00
H2       1.06918    0.89137    1.13852   1.00
H2       1.08849    0.78920    1.17362   1.00
H2       1.09537    0.81105    1.12808   1.00
H2       1.10937    0.83661    1.17050   1.00
H2       1.09774    0.89330    1.22014   1.00
H2       1.07935    0.92936    1.25208   1.00
H2       1.08287    0.88163    1.26832   1.00
H2       1.04599    0.93692    1.18402   1.00
H2       0.99668    0.92399    1.18568   1.00
H2       1.01665    0.95205    1.22328   1.00
H2       0.87203    0.83755    1.18188   1.00
H2       0.83535    0.80187    1.18309   1.00
H2       0.88335    0.78920    1.19548   1.00
H2       0.81859    0.82583    1.11625   1.00
H2       0.85935    0.85622    1.11074   1.00
H2       0.84949    0.81927    1.07622   1.00
H2       0.96442    0.77839    1.01702   1.00
H2       0.98537    0.79824    1.05935   1.00
H2       0.97896    0.74718    1.05535   1.00
H2       0.86854    0.74740    1.05916   1.00
H2       0.89779    0.74879    1.01712   1.00
H2       0.91056    0.71739    1.05585   1.00
H2       0.94427    0.75947    1.20156   1.00
H2       0.97163    0.71761    1.18881   1.00
H2       0.98689    0.76383    1.17334   1.00
H2       0.92013    0.68190    1.15544   1.00
H2       0.88658    0.71764    1.17122   1.00
H2       0.88862    0.70370    1.12157   1.00
C4       0.91616    1.18584    0.91219   1.00
C4       0.91645    1.14412    0.91285   1.00
C3       0.94443    1.20864    0.89224   1.00
C3       0.94694    1.12116    0.89669   1.00
C3       0.88641    1.20623    0.93302   1.00
C3       0.88462    1.12386    0.93049   1.00
C2       0.91466    1.27012    0.91385   1.00
C2       0.91534    1.05988    0.91615   1.00
C3       0.94386    1.24962    0.89322   1.00
C3       0.94624    1.08019    0.89796   1.00
C3       0.88591    1.24758    0.93304   1.00
C3       0.88529    1.08262    0.93294   1.00
H1       0.96619    1.19615    0.87631   1.00
H1       0.97066    1.13352    0.88374   1.00
C5       0.85725    1.18520    0.95356   1.00
C5       0.85245    1.14480    0.94589   1.00
H1       0.96523    1.26455    0.87848   1.00
H1       0.96892    1.06510    0.88550   1.00
H1       0.86377    1.26180    0.94721   1.00
H1       0.86353    1.06868    0.94784   1.00
O3       0.83266    1.20461    0.97877   1.00
O3       0.81821    1.12599    0.95594   1.00
Si1      0.84362    1.20747    1.02506   1.00
Si1      0.78571    1.11779    0.92212   1.00
C6       0.80631    1.24038    1.03843   1.00
C6       0.83575    1.16098    1.04564   1.00
C6       0.89028    1.22753    1.03375   1.00
C6       0.79669    1.13193    0.87374   1.00
C6       0.77948    1.06698    0.92405   1.00
C6       0.74186    1.13977    0.93752   1.00
C6       0.80130    1.27694    1.01138   1.00
H2       0.78004    1.22291    1.03395   1.00
C6       0.80323    1.25647    1.08121   1.00
H2       0.81415    1.14858    1.02581   1.00
C6       0.87047    1.13134    1.04624   1.00
C6       0.81712    1.15836    1.08726   1.00
H2       0.89010    1.25331    1.01496   1.00
C6       0.89901    1.24272    1.07599   1.00
C6       0.92770    1.20349    1.02252   1.00
C6       0.80696    1.17571    0.86597   1.00
C6       0.82634    1.10725    0.84921   1.00
H2       0.76894    1.12712    0.85886   1.00
H2       0.80683    1.05551    0.91247   1.00
C6       0.77541    1.04878    0.96578   1.00
C6       0.74614    1.04893    0.89866   1.00
H2       0.72946    1.11875    0.95800   1.00
C6       0.74589    1.17836    0.96127   1.00
C6       0.70948    1.14744    0.90619   1.00
H2       0.79686    1.26846    0.98097   1.00
H2       0.82691    1.29590    1.01270   1.00
H2       0.77582    1.29417    1.01986   1.00
H2       0.77262    1.26108    1.08896   1.00
H2       0.81563    1.23678    1.10276   1.00
H2       0.81775    1.28464    1.08461   1.00
H2       0.85994    1.10172    1.05177   1.00
H2       0.88579    1.13032    1.01845   1.00
H2       0.89137    1.13852    1.06918   1.00
H2       0.78920    1.17362    1.08849   1.00
H2       0.81105    1.12808    1.09537   1.00
H2       0.83661    1.17050    1.10937   1.00
H2       0.89330    1.22014    1.09774   1.00
H2       0.92936    1.25208    1.07935   1.00
H2       0.88163    1.26832    1.08287   1.00
H2       0.93692    1.18402    1.04599   1.00
H2       0.92399    1.18568    0.99668   1.00
H2       0.95205    1.22328    1.01665   1.00
H2       0.83755    1.18188    0.87203   1.00
H2       0.80187    1.18309    0.83535   1.00
H2       0.78920    1.19548    0.88335   1.00
H2       0.82583    1.11625    0.81859   1.00
H2       0.85622    1.11074    0.85935   1.00
H2       0.81927    1.07622    0.84949   1.00
H2       0.77839    1.01702    0.96442   1.00
H2       0.79824    1.05935    0.98537   1.00
H2       0.74718    1.05535    0.97896   1.00
H2       0.74740    1.05916    0.86854   1.00
H2       0.74879    1.01712    0.89779   1.00
H2       0.71739    1.05585    0.91056   1.00
H2       0.75947    1.20156    0.94427   1.00
H2       0.71761    1.18881    0.97163   1.00
H2       0.76383    1.17334    0.98689   1.00
H2       0.68190    1.15544    0.92013   1.00
H2       0.71764    1.17122    0.88658   1.00
H2       0.70370    1.12157    0.88862   1.00
C4       0.64416    0.91219    0.91384   1.00
C4       0.68588    0.91285    0.91355   1.00
C3       0.62136    0.89224    0.88557   1.00
C3       0.70884    0.89669    0.88306   1.00
C3       0.62377    0.93302    0.94359   1.00
C3       0.70614    0.93049    0.94538   1.00
C2       0.55988    0.91385    0.91534   1.00
C2       0.77012    0.91615    0.91466   1.00
C3       0.58038    0.89322    0.88614   1.00
C3       0.74981    0.89796    0.88376   1.00
C3       0.58242    0.93304    0.94409   1.00
C3       0.74738    0.93294    0.94471   1.00
H1       0.63385    0.87631    0.86381   1.00
H1       0.69648    0.88374    0.85934   1.00
C5       0.64480    0.95356    0.97275   1.00
C5       0.68520    0.94589    0.97755   1.00
H1       0.56545    0.87848    0.86477   1.00
H1       0.76490    0.88550    0.86108   1.00
H1       0.56820    0.94721    0.96623   1.00
H1       0.76132    0.94784    0.96647   1.00
O3       0.62539    0.97877    0.99734   1.00
O3       0.70401    0.95594    1.01179   1.00
Si1      0.62253    1.02506    0.98638   1.00
Si1      0.71221    0.92212    1.04429   1.00
C6       0.58962    1.03843    1.02369   1.00
C6       0.66902    1.04564    0.99425   1.00
C6       0.60247    1.03375    0.93972   1.00
C6       0.69807    0.87374    1.03331   1.00
C6       0.76302    0.92405    1.05052   1.00
C6       0.69023    0.93752    1.08814   1.00
C6       0.55306    1.01138    1.02870   1.00
H2       0.60709    1.03395    1.04996   1.00
C6       0.57353    1.08121    1.02677   1.00
H2       0.68142    1.02581    1.01585   1.00
C6       0.69866    1.04624    0.95953   1.00
C6       0.67164    1.08726    1.01288   1.00
H2       0.57669    1.01496    0.93990   1.00
C6       0.58728    1.07599    0.93099   1.00
C6       0.62651    1.02252    0.90230   1.00
C6       0.65429    0.86597    1.02304   1.00
C6       0.72275    0.84921    1.00366   1.00
H2       0.70288    0.85886    1.06106   1.00
H2       0.77449    0.91247    1.02317   1.00
C6       0.78122    0.96578    1.05459   1.00
C6       0.78107    0.89866    1.08386   1.00
H2       0.71125    0.95800    1.10054   1.00
C6       0.65164    0.96127    1.08411   1.00
C6       0.68256    0.90619    1.12052   1.00
H2       0.56154    0.98097    1.03314   1.00
H2       0.53410    1.01270    1.00309   1.00
H2       0.53583    1.01986    1.05418   1.00
H2       0.56892    1.08896    1.05738   1.00
H2       0.59322    1.10276    1.01437   1.00
H2       0.54536    1.08461    1.01225   1.00
H2       0.72828    1.05177    0.97006   1.00
H2       0.69968    1.01845    0.94421   1.00
H2       0.69148    1.06918    0.93863   1.00
H2       0.65638    1.08849    1.04080   1.00
H2       0.70192    1.09537    1.01895   1.00
H2       0.65950    1.10937    0.99339   1.00
H2       0.60986    1.09774    0.93670   1.00
H2       0.57792    1.07935    0.90064   1.00
H2       0.56168    1.08287    0.94837   1.00
H2       0.64598    1.04599    0.89308   1.00
H2       0.64432    0.99668    0.90601   1.00
H2       0.60672    1.01665    0.87795   1.00
H2       0.64812    0.87203    0.99245   1.00
H2       0.64691    0.83535    1.02813   1.00
H2       0.63452    0.88335    1.04080   1.00
H2       0.71375    0.81859    1.00417   1.00
H2       0.71926    0.85935    0.97378   1.00
H2       0.75378    0.84949    1.01073   1.00
H2       0.81298    0.96442    1.05161   1.00
H2       0.77065    0.98537    1.03176   1.00
H2       0.77465    0.97896    1.08282   1.00
H2       0.77084    0.86854    1.08260   1.00
H2       0.81288    0.89779    1.08121   1.00
H2       0.77415    0.91056    1.11261   1.00
H2       0.62844    0.94427    1.07053   1.00
H2       0.64119    0.97163    1.11239   1.00
H2       0.65666    0.98689    1.06617   1.00
H2       0.67456    0.92013    1.14810   1.00
H2       0.65878    0.88658    1.11236   1.00
H2       0.70843    0.88862    1.12630   1.00
C4       1.18584    0.91219    0.91616   1.00
C4       1.14412    0.91285    0.91645   1.00
C3       1.20864    0.89224    0.94443   1.00
C3       1.12116    0.89669    0.94694   1.00
C3       1.20623    0.93302    0.88641   1.00
C3       1.12386    0.93049    0.88462   1.00
C2       1.27012    0.91385    0.91466   1.00
C2       1.05988    0.91615    0.91534   1.00
C3       1.24962    0.89322    0.94386   1.00
C3       1.08019    0.89796    0.94624   1.00
C3       1.24758    0.93304    0.88591   1.00
C3       1.08262    0.93294    0.88529   1.00
H1       1.19615    0.87631    0.96619   1.00
H1       1.13352    0.88374    0.97066   1.00
C5       1.18520    0.95356    0.85725   1.00
C5       1.14480    0.94589    0.85245   1.00
H1       1.26455    0.87848    0.96523   1.00
H1       1.06510    0.88550    0.96892   1.00
H1       1.26180    0.94721    0.86377   1.00
H1       1.06868    0.94784    0.86353   1.00
O3       1.20461    0.97877    0.83266   1.00
O3       1.12599    0.95594    0.81821   1.00
Si1      1.20747    1.02506    0.84362   1.00
Si1      1.11779    0.92212    0.78571   1.00
C6       1.24038    1.03843    0.80631   1.00
C6       1.16098    1.04564    0.83575   1.00
C6       1.22753    1.03375    0.89028   1.00
C6       1.13193    0.87374    0.79669   1.00
C6       1.06698    0.92405    0.77948   1.00
C6       1.13977    0.93752    0.74186   1.00
C6       1.27694    1.01138    0.80130   1.00
H2       1.22291    1.03395    0.78004   1.00
C6       1.25647    1.08121    0.80323   1.00
H2       1.14858    1.02581    0.81415   1.00
C6       1.13134    1.04624    0.87047   1.00
C6       1.15836    1.08726    0.81712   1.00
H2       1.25331    1.01496    0.89010   1.00
C6       1.24272    1.07599    0.89901   1.00
C6       1.20349    1.02252    0.92770   1.00
C6       1.17571    0.86597    0.80696   1.00
C6       1.10725    0.84921    0.82634   1.00
H2       1.12712    0.85886    0.76894   1.00
H2       1.05551    0.91247    0.80683   1.00
C6       1.04878    0.96578    0.77541   1.00
C6       1.04893    0.89866    0.74614   1.00
H2       1.11875    0.95800    0.72946   1.00
C6       1.17836    0.96127    0.74589   1.00
C6       1.14744    0.90619    0.70948   1.00
H2       1.26846    0.98097    0.79686   1.00
H2       1.29590    1.01270    0.82691   1.00
H2       1.29417    1.01986    0.77582   1.00
H2       1.26108    1.08896    0.77262   1.00
H2       1.23678    1.10276    0.81563   1.00
H2       1.28464    1.08461    0.81775   1.00
H2       1.10172    1.05177    0.85994   1.00
H2       1.13032    1.01845    0.88579   1.00
H2       1.13852    1.06918    0.89137   1.00
H2       1.17362    1.08849    0.78920   1.00
H2       1.12808    1.09537    0.81105   1.00
H2       1.17050    1.10937    0.83661   1.00
H2       1.22014    1.09774    0.89330   1.00
H2       1.25208    1.07935    0.92936   1.00
H2       1.26832    1.08287    0.88163   1.00
H2       1.18402    1.04599    0.93692   1.00
H2       1.18568    0.99668    0.92399   1.00
H2       1.22328    1.01665    0.95205   1.00
H2       1.18188    0.87203    0.83755   1.00
H2       1.18309    0.83535    0.80187   1.00
H2       1.19548    0.88335    0.78920   1.00
H2       1.11625    0.81859    0.82583   1.00
H2       1.11074    0.85935    0.85622   1.00
H2       1.07622    0.84949    0.81927   1.00
H2       1.01702    0.96442    0.77839   1.00
H2       1.05935    0.98537    0.79824   1.00
H2       1.05535    0.97896    0.74718   1.00
H2       1.05916    0.86854    0.74740   1.00
H2       1.01712    0.89779    0.74879   1.00
H2       1.05585    0.91056    0.71739   1.00
H2       1.20156    0.94427    0.75947   1.00
H2       1.18881    0.97163    0.71761   1.00
H2       1.17334    0.98689    0.76383   1.00
H2       1.15544    0.92013    0.68190   1.00
H2       1.17122    0.88658    0.71764   1.00
H2       1.12157    0.88862    0.70370   1.00
C4       0.91384    0.64416    0.91219   1.00
C4       0.91355    0.68588    0.91285   1.00
C3       0.88557    0.62136    0.89224   1.00
C3       0.88306    0.70884    0.89669   1.00
C3       0.94359    0.62377    0.93302   1.00
C3       0.94538    0.70614    0.93049   1.00
C2       0.91534    0.55988    0.91385   1.00
C2       0.91466    0.77012    0.91615   1.00
C3       0.88614    0.58038    0.89322   1.00
C3       0.88376    0.74981    0.89796   1.00
C3       0.94409    0.58242    0.93304   1.00
C3       0.94471    0.74738    0.93294   1.00
H1       0.86381    0.63385    0.87631   1.00
H1       0.85934    0.69648    0.88374   1.00
C5       0.97275    0.64480    0.95356   1.00
C5       0.97755    0.68520    0.94589   1.00
H1       0.86477    0.56545    0.87848   1.00
H1       0.86108    0.76490    0.88550   1.00
H1       0.96623    0.56820    0.94721   1.00
H1       0.96647    0.76132    0.94784   1.00
O3       0.99734    0.62539    0.97877   1.00
O3       1.01179    0.70401    0.95594   1.00
Si1      0.98638    0.62253    1.02506   1.00
Si1      1.04429    0.71221    0.92212   1.00
C6       1.02369    0.58962    1.03843   1.00
C6       0.99425    0.66902    1.04564   1.00
C6       0.93972    0.60247    1.03375   1.00
C6       1.03331    0.69807    0.87374   1.00
C6       1.05052    0.76302    0.92405   1.00
C6       1.08814    0.69023    0.93752   1.00
C6       1.02870    0.55306    1.01138   1.00
H2       1.04996    0.60709    1.03395   1.00
C6       1.02677    0.57353    1.08121   1.00
H2       1.01585    0.68142    1.02581   1.00
C6       0.95953    0.69866    1.04624   1.00
C6       1.01288    0.67164    1.08726   1.00
H2       0.93990    0.57669    1.01496   1.00
C6       0.93099    0.58728    1.07599   1.00
C6       0.90230    0.62651    1.02252   1.00
C6       1.02304    0.65429    0.86597   1.00
C6       1.00366    0.72275    0.84921   1.00
H2       1.06106    0.70288    0.85886   1.00
H2       1.02317    0.77449    0.91247   1.00
C6       1.05459    0.78122    0.96578   1.00
C6       1.08386    0.78107    0.89866   1.00
H2       1.10054    0.71125    0.95800   1.00
C6       1.08411    0.65164    0.96127   1.00
C6       1.12052    0.68256    0.90619   1.00
H2       1.03314    0.56154    0.98097   1.00
H2       1.00309    0.53410    1.01270   1.00
H2       1.05418    0.53583    1.01986   1.00
H2       1.05738    0.56892    1.08896   1.00
H2       1.01437    0.59322    1.10276   1.00
H2       1.01225    0.54536    1.08461   1.00
H2       0.97006    0.72828    1.05177   1.00
H2       0.94421    0.69968    1.01845   1.00
H2       0.93863    0.69148    1.06918   1.00
H2       1.04080    0.65638    1.08849   1.00
H2       1.01895    0.70192    1.09537   1.00
H2       0.99339    0.65950    1.10937   1.00
H2       0.93670    0.60986    1.09774   1.00
H2       0.90064    0.57792    1.07935   1.00
H2       0.94837    0.56168    1.08287   1.00
H2       0.89308    0.64598    1.04599   1.00
H2       0.90601    0.64432    0.99668   1.00
H2       0.87795    0.60672    1.01665   1.00
H2       0.99245    0.64812    0.87203   1.00
H2       1.02813    0.64691    0.83535   1.00
H2       1.04080    0.63452    0.88335   1.00
H2       1.00417    0.71375    0.81859   1.00
H2       0.97378    0.71926    0.85935   1.00
H2       1.01073    0.75378    0.84949   1.00
H2       1.05161    0.81298    0.96442   1.00
H2       1.03176    0.77065    0.98537   1.00
H2       1.08282    0.77465    0.97896   1.00
H2       1.08260    0.77084    0.86854   1.00
H2       1.08121    0.81288    0.89779   1.00
H2       1.11261    0.77415    0.91056   1.00
H2       1.07053    0.62844    0.94427   1.00
H2       1.11239    0.64119    0.97163   1.00
H2       1.06617    0.65666    0.98689   1.00
H2       1.14810    0.67456    0.92013   1.00
H2       1.11236    0.65878    0.88658   1.00
H2       1.12630    0.70843    0.88862   1.00
C4       0.91219    0.91384    0.64416   1.00
C4       0.91285    0.91355    0.68588   1.00
C3       0.89224    0.88557    0.62136   1.00
C3       0.89669    0.88306    0.70884   1.00
C3       0.93302    0.94359    0.62377   1.00
C3       0.93049    0.94538    0.70614   1.00
C2       0.91385    0.91534    0.55988   1.00
C2       0.91615    0.91466    0.77012   1.00
C3       0.89322    0.88614    0.58038   1.00
C3       0.89796    0.88376    0.74981   1.00
C3       0.93304    0.94409    0.58242   1.00
C3       0.93294    0.94471    0.74738   1.00
H1       0.87631    0.86381    0.63385   1.00
H1       0.88374    0.85934    0.69648   1.00
C5       0.95356    0.97275    0.64480   1.00
C5       0.94589    0.97755    0.68520   1.00
H1       0.87848    0.86477    0.56545   1.00
H1       0.88550    0.86108    0.76490   1.00
H1       0.94721    0.96623    0.56820   1.00
H1       0.94784    0.96647    0.76132   1.00
O3       0.97877    0.99734    0.62539   1.00
O3       0.95594    1.01179    0.70401   1.00
Si1      1.02506    0.98638    0.62253   1.00
Si1      0.92212    1.04429    0.71221   1.00
C6       1.03843    1.02369    0.58962   1.00
C6       1.04564    0.99425    0.66902   1.00
C6       1.03375    0.93972    0.60247   1.00
C6       0.87374    1.03331    0.69807   1.00
C6       0.92405    1.05052    0.76302   1.00
C6       0.93752    1.08814    0.69023   1.00
C6       1.01138    1.02870    0.55306   1.00
H2       1.03395    1.04996    0.60709   1.00
C6       1.08121    1.02677    0.57353   1.00
H2       1.02581    1.01585    0.68142   1.00
C6       1.04624    0.95953    0.69866   1.00
C6       1.08726    1.01288    0.67164   1.00
H2       1.01496    0.93990    0.57669   1.00
C6       1.07599    0.93099    0.58728   1.00
C6       1.02252    0.90230    0.62651   1.00
C6       0.86597    1.02304    0.65429   1.00
C6       0.84921    1.00366    0.72275   1.00
H2       0.85886    1.06106    0.70288   1.00
H2       0.91247    1.02317    0.77449   1.00
C6       0.96578    1.05459    0.78122   1.00
C6       0.89866    1.08386    0.78107   1.00
H2       0.95800    1.10054    0.71125   1.00
C6       0.96127    1.08411    0.65164   1.00
C6       0.90619    1.12052    0.68256   1.00
H2       0.98097    1.03314    0.56154   1.00
H2       1.01270    1.00309    0.53410   1.00
H2       1.01986    1.05418    0.53583   1.00
H2       1.08896    1.05738    0.56892   1.00
H2       1.10276    1.01437    0.59322   1.00
H2       1.08461    1.01225    0.54536   1.00
H2       1.05177    0.97006    0.72828   1.00
H2       1.01845    0.94421    0.69968   1.00
H2       1.06918    0.93863    0.69148   1.00
H2       1.08849    1.04080    0.65638   1.00
H2       1.09537    1.01895    0.70192   1.00
H2       1.10937    0.99339    0.65950   1.00
H2       1.09774    0.93670    0.60986   1.00
H2       1.07935    0.90064    0.57792   1.00
H2       1.08287    0.94837    0.56168   1.00
H2       1.04599    0.89308    0.64598   1.00
H2       0.99668    0.90601    0.64432   1.00
H2       1.01665    0.87795    0.60672   1.00
H2       0.87203    0.99245    0.64812   1.00
H2       0.83535    1.02813    0.64691   1.00
H2       0.88335    1.04080    0.63452   1.00
H2       0.81859    1.00417    0.71375   1.00
H2       0.85935    0.97378    0.71926   1.00
H2       0.84949    1.01073    0.75378   1.00
H2       0.96442    1.05161    0.81298   1.00
H2       0.98537    1.03176    0.77065   1.00
H2       0.97896    1.08282    0.77465   1.00
H2       0.86854    1.08260    0.77084   1.00
H2       0.89779    1.08121    0.81288   1.00
H2       0.91056    1.11261    0.77415   1.00
H2       0.94427    1.07053    0.62844   1.00
H2       0.97163    1.11239    0.64119   1.00
H2       0.98689    1.06617    0.65666   1.00
H2       0.92013    1.14810    0.67456   1.00
H2       0.88658    1.11236    0.65878   1.00
H2       0.88862    1.12630    0.70843   1.00
C4       0.41219    0.41616    1.18584   1.00
C4       0.41285    0.41645    1.14412   1.00
C3       0.39224    0.44443    1.20864   1.00
C3       0.39669    0.44694    1.12116   1.00
C3       0.43302    0.38641    1.20623   1.00
C3       0.43049    0.38462    1.12386   1.00
C2       0.41385    0.41466    1.27012   1.00
C2       0.41615    0.41534    1.05988   1.00
C3       0.39322    0.44386    1.24962   1.00
C3       0.39796    0.44624    1.08019   1.00
C3       0.43304    0.38591    1.24758   1.00
C3       0.43294    0.38529    1.08262   1.00
H1       0.37631    0.46619    1.19615   1.00
H1       0.38374    0.47066    1.13352   1.00
C5       0.45356    0.35725    1.18520   1.00
C5       0.44589    0.35245    1.14480   1.00
H1       0.37848    0.46523    1.26455   1.00
H1       0.38550    0.46892    1.06510   1.00
H1       0.44721    0.36377    1.26180   1.00
H1       0.44784    0.36353    1.06868   1.00
O3       0.47877    0.33266    1.20461   1.00
O3       0.45594    0.31821    1.12599   1.00
Si1      0.52506    0.34362    1.20747   1.00
Si1      0.42212    0.28571    1.11779   1.00
C6       0.53843    0.30631    1.24038   1.00
C6       0.54564    0.33575    1.16098   1.00
C6       0.53375    0.39028    1.22753   1.00
C6       0.37374    0.29669    1.13193   1.00
C6       0.42405    0.27948    1.06698   1.00
C6       0.43752    0.24186    1.13977   1.00
C6       0.51138    0.30130    1.27694   1.00
H2       0.53395    0.28004    1.22291   1.00
C6       0.58121    0.30323    1.25647   1.00
H2       0.52581    0.31415    1.14858   1.00
C6       0.54624    0.37047    1.13134   1.00
C6       0.58726    0.31712    1.15836   1.00
H2       0.51496    0.39010    1.25331   1.00
C6       0.57599    0.39901    1.24272   1.00
C6       0.52252    0.42770    1.20349   1.00
C6       0.36597    0.30696    1.17571   1.00
C6       0.34921    0.32634    1.10725   1.00
H2       0.35886    0.26894    1.12712   1.00
H2       0.41247    0.30683    1.05551   1.00
C6       0.46578    0.27541    1.04878   1.00
C6       0.39866    0.24614    1.04893   1.00
H2       0.45800    0.22946    1.11875   1.00
C6       0.46127    0.24589    1.17836   1.00
C6       0.40619    0.20948    1.14744   1.00
H2       0.48097    0.29686    1.26846   1.00
H2       0.51270    0.32691    1.29590   1.00
H2       0.51986    0.27582    1.29417   1.00
H2       0.58896    0.27262    1.26108   1.00
H2       0.60276    0.31563    1.23678   1.00
H2       0.58461    0.31775    1.28464   1.00
H2       0.55177    0.35994    1.10172   1.00
H2       0.51845    0.38579    1.13032   1.00
H2       0.56918    0.39137    1.13852   1.00
H2       0.58849    0.28920    1.17362   1.00
H2       0.59537    0.31105    1.12808   1.00
H2       0.60937    0.33661    1.17050   1.00
H2       0.59774    0.39330    1.22014   1.00
H2       0.57935    0.42936    1.25208   1.00
H2       0.58287    0.38163    1.26832   1.00
H2       0.54599    0.43692    1.18402   1.00
H2       0.49668    0.42399    1.18568   1.00
H2       0.51665    0.45205    1.22328   1.00
H2       0.37203    0.33755    1.18188   1.00
H2       0.33535    0.30187    1.18309   1.00
H2       0.38335    0.28920    1.19548   1.00
H2       0.31859    0.32583    1.11625   1.00
H2       0.35935    0.35622    1.11074   1.00
H2       0.34949    0.31927    1.07622   1.00
H2       0.46442    0.27839    1.01702   1.00
H2       0.48537    0.29824    1.05935   1.00
H2       0.47896    0.24718    1.05535   1.00
H2       0.36854    0.24740    1.05916   1.00
H2       0.39779    0.24879    1.01712   1.00
H2       0.41056    0.21739    1.05585   1.00
H2       0.44427    0.25947    1.20156   1.00
H2       0.47163    0.21761    1.18881   1.00
H2       0.48689    0.26383    1.17334   1.00
H2       0.42013    0.18190    1.15544   1.00
H2       0.38658    0.21764    1.17122   1.00
H2       0.38862    0.20370    1.12157   1.00
C4       0.41616    0.68584    0.91219   1.00
C4       0.41645    0.64412    0.91285   1.00
C3       0.44443    0.70864    0.89224   1.00
C3       0.44694    0.62116    0.89669   1.00
C3       0.38641    0.70623    0.93302   1.00
C3       0.38462    0.62386    0.93049   1.00
C2       0.41466    0.77012    0.91385   1.00
C2       0.41534    0.55988    0.91615   1.00
C3       0.44386    0.74962    0.89322   1.00
C3       0.44624    0.58019    0.89796   1.00
C3       0.38591    0.74758    0.93304   1.00
C3       0.38529    0.58262    0.93294   1.00
H1       0.46619    0.69615    0.87631   1.00
H1       0.47066    0.63352    0.88374   1.00
C5       0.35725    0.68520    0.95356   1.00
C5       0.35245    0.64480    0.94589   1.00
H1       0.46523    0.76455    0.87848   1.00
H1       0.46892    0.56510    0.88550   1.00
H1       0.36377    0.76180    0.94721   1.00
H1       0.36353    0.56868    0.94784   1.00
O3       0.33266    0.70461    0.97877   1.00
O3       0.31821    0.62599    0.95594   1.00
Si1      0.34362    0.70747    1.02506   1.00
Si1      0.28571    0.61779    0.92212   1.00
C6       0.30631    0.74038    1.03843   1.00
C6       0.33575    0.66098    1.04564   1.00
C6       0.39028    0.72753    1.03375   1.00
C6       0.29669    0.63193    0.87374   1.00
C6       0.27948    0.56698    0.92405   1.00
C6       0.24186    0.63977    0.93752   1.00
C6       0.30130    0.77694    1.01138   1.00
H2       0.28004    0.72291    1.03395   1.00
C6       0.30323    0.75647    1.08121   1.00
H2       0.31415    0.64858    1.02581   1.00
C6       0.37047    0.63134    1.04624   1.00
C6       0.31712    0.65836    1.08726   1.00
H2       0.39010    0.75331    1.01496   1.00
C6       0.39901    0.74272    1.07599   1.00
C6       0.42770    0.70349    1.02252   1.00
C6       0.30696    0.67571    0.86597   1.00
C6       0.32634    0.60725    0.84921   1.00
H2       0.26894    0.62712    0.85886   1.00
H2       0.30683    0.55551    0.91247   1.00
C6       0.27541    0.54878    0.96578   1.00
C6       0.24614    0.54893    0.89866   1.00
H2       0.22946    0.61875    0.95800   1.00
C6       0.24589    0.67836    0.96127   1.00
C6       0.20948    0.64744    0.90619   1.00
H2       0.29686    0.76846    0.98097   1.00
H2       0.32691    0.79590    1.01270   1.00
H2       0.27582    0.79417    1.01986   1.00
H2       0.27262    0.76108    1.08896   1.00
H2       0.31563    0.73678    1.10276   1.00
H2       0.31775    0.78464    1.08461   1.00
H2       0.35994    0.60172    1.05177   1.00
H2       0.38579    0.63032    1.01845   1.00
H2       0.39137    0.63852    1.06918   1.00
H2       0.28920    0.67362    1.08849   1.00
H2       0.31105    0.62808    1.09537   1.00
H2       0.33661    0.67050    1.10937   1.00
H2       0.39330    0.72014    1.09774   1.00
H2       0.42936    0.75208    1.07935   1.00
H2       0.38163    0.76832    1.08287   1.00
H2       0.43692    0.68402    1.04599   1.00
H2       0.42399    0.68568    0.99668   1.00
H2       0.45205    0.72328    1.01665   1.00
H2       0.33755    0.68188    0.87203   1.00
H2       0.30187    0.68309    0.83535   1.00
H2       0.28920    0.69548    0.88335   1.00
H2       0.32583    0.61625    0.81859   1.00
H2       0.35622    0.61074    0.85935   1.00
H2       0.31927    0.57622    0.84949   1.00
H2       0.27839    0.51702    0.96442   1.00
H2       0.29824    0.55935    0.98537   1.00
H2       0.24718    0.55535    0.97896   1.00
H2       0.24740    0.55916    0.86854   1.00
H2       0.24879    0.51712    0.89779   1.00
H2       0.21739    0.55585    0.91056   1.00
H2       0.25947    0.70156    0.94427   1.00
H2       0.21761    0.68881    0.97163   1.00
H2       0.26383    0.67334    0.98689   1.00
H2       0.18190    0.65544    0.92013   1.00
H2       0.21764    0.67122    0.88658   1.00
H2       0.20370    0.62157    0.88862   1.00
C4       0.14416    0.41219    0.91384   1.00
C4       0.18588    0.41285    0.91355   1.00
C3       0.12136    0.39224    0.88557   1.00
C3       0.20884    0.39669    0.88306   1.00
C3       0.12377    0.43302    0.94359   1.00
C3       0.20614    0.43049    0.94538   1.00
C2       0.05988    0.41385    0.91534   1.00
C2       0.27012    0.41615    0.91466   1.00
C3       0.08038    0.39322    0.88614   1.00
C3       0.24981    0.39796    0.88376   1.00
C3       0.08242    0.43304    0.94409   1.00
C3       0.24738    0.43294    0.94471   1.00
H1       0.13385    0.37631    0.86381   1.00
H1       0.19648    0.38374    0.85934   1.00
C5       0.14480    0.45356    0.97275   1.00
C5       0.18520    0.44589    0.97755   1.00
H1       0.06545    0.37848    0.86477   1.00
H1       0.26490    0.38550    0.86108   1.00
H1       0.06820    0.44721    0.96623   1.00
H1       0.26132    0.44784    0.96647   1.00
O3       0.12539    0.47877    0.99734   1.00
O3       0.20401    0.45594    1.01179   1.00
Si1      0.12253    0.52506    0.98638   1.00
Si1      0.21221    0.42212    1.04429   1.00
C6       0.08962    0.53843    1.02369   1.00
C6       0.16902    0.54564    0.99425   1.00
C6       0.10247    0.53375    0.93972   1.00
C6       0.19807    0.37374    1.03331   1.00
C6       0.26302    0.42405    1.05052   1.00
C6       0.19023    0.43752    1.08814   1.00
C6       0.05306    0.51138    1.02870   1.00
H2       0.10709    0.53395    1.04996   1.00
C6       0.07353    0.58121    1.02677   1.00
H2       0.18142    0.52581    1.01585   1.00
C6       0.19866    0.54624    0.95953   1.00
C6       0.17164    0.58726    1.01288   1.00
H2       0.07669    0.51496    0.93990   1.00
C6       0.08728    0.57599    0.93099   1.00
C6       0.12651    0.52252    0.90230   1.00
C6       0.15429    0.36597    1.02304   1.00
C6       0.22275    0.34921    1.00366   1.00
H2       0.20288    0.35886    1.06106   1.00
H2       0.27449    0.41247    1.02317   1.00
C6       0.28122    0.46578    1.05459   1.00
C6       0.28107    0.39866    1.08386   1.00
H2       0.21125    0.45800    1.10054   1.00
C6       0.15164    0.46127    1.08411   1.00
C6       0.18256    0.40619    1.12052   1.00
H2       0.06154    0.48097    1.03314   1.00
H2       0.03410    0.51270    1.00309   1.00
H2       0.03583    0.51986    1.05418   1.00
H2       0.06892    0.58896    1.05738   1.00
H2       0.09322    0.60276    1.01437   1.00
H2       0.04536    0.58461    1.01225   1.00
H2       0.22828    0.55177    0.97006   1.00
H2       0.19968    0.51845    0.94421   1.00
H2       0.19148    0.56918    0.93863   1.00
H2       0.15638    0.58849    1.04080   1.00
H2       0.20192    0.59537    1.01895   1.00
H2       0.15950    0.60937    0.99339   1.00
H2       0.10986    0.59774    0.93670   1.00
H2       0.07792    0.57935    0.90064   1.00
H2       0.06168    0.58287    0.94837   1.00
H2       0.14598    0.54599    0.89308   1.00
H2       0.14432    0.49668    0.90601   1.00
H2       0.10672    0.51665    0.87795   1.00
H2       0.14812    0.37203    0.99245   1.00
H2       0.14691    0.33535    1.02813   1.00
H2       0.13452    0.38335    1.04080   1.00
H2       0.21375    0.31859    1.00417   1.00
H2       0.21926    0.35935    0.97378   1.00
H2       0.25378    0.34949    1.01073   1.00
H2       0.31298    0.46442    1.05161   1.00
H2       0.27065    0.48537    1.03176   1.00
H2       0.27465    0.47896    1.08282   1.00
H2       0.27084    0.36854    1.08260   1.00
H2       0.31288    0.39779    1.08121   1.00
H2       0.27415    0.41056    1.11261   1.00
H2       0.12844    0.44427    1.07053   1.00
H2       0.14119    0.47163    1.11239   1.00
H2       0.15666    0.48689    1.06617   1.00
H2       0.17456    0.42013    1.14810   1.00
H2       0.15878    0.38658    1.11236   1.00
H2       0.20843    0.38862    1.12630   1.00
C4       0.68584    0.41219    0.91616   1.00
C4       0.64412    0.41285    0.91645   1.00
C3       0.70864    0.39224    0.94443   1.00
C3       0.62116    0.39669    0.94694   1.00
C3       0.70623    0.43302    0.88641   1.00
C3       0.62386    0.43049    0.88462   1.00
C2       0.77012    0.41385    0.91466   1.00
C2       0.55988    0.41615    0.91534   1.00
C3       0.74962    0.39322    0.94386   1.00
C3       0.58019    0.39796    0.94624   1.00
C3       0.74758    0.43304    0.88591   1.00
C3       0.58262    0.43294    0.88529   1.00
H1       0.69615    0.37631    0.96619   1.00
H1       0.63352    0.38374    0.97066   1.00
C5       0.68520    0.45356    0.85725   1.00
C5       0.64480    0.44589    0.85245   1.00
H1       0.76455    0.37848    0.96523   1.00
H1       0.56510    0.38550    0.96892   1.00
H1       0.76180    0.44721    0.86377   1.00
H1       0.56868    0.44784    0.86353   1.00
O3       0.70461    0.47877    0.83266   1.00
O3       0.62599    0.45594    0.81821   1.00
Si1      0.70747    0.52506    0.84362   1.00
Si1      0.61779    0.42212    0.78571   1.00
C6       0.74038    0.53843    0.80631   1.00
C6       0.66098    0.54564    0.83575   1.00
C6       0.72753    0.53375    0.89028   1.00
C6       0.63193    0.37374    0.79669   1.00
C6       0.56698    0.42405    0.77948   1.00
C6       0.63977    0.43752    0.74186   1.00
C6       0.77694    0.51138    0.80130   1.00
H2       0.72291    0.53395    0.78004   1.00
C6       0.75647    0.58121    0.80323   1.00
H2       0.64858    0.52581    0.81415   1.00
C6       0.63134    0.54624    0.87047   1.00
C6       0.65836    0.58726    0.81712   1.00
H2       0.75331    0.51496    0.89010   1.00
C6       0.74272    0.57599    0.89901   1.00
C6       0.70349    0.52252    0.92770   1.00
C6       0.67571    0.36597    0.80696   1.00
C6       0.60725    0.34921    0.82634   1.00
H2       0.62712    0.35886    0.76894   1.00
H2       0.55551    0.41247    0.80683   1.00
C6       0.54878    0.46578    0.77541   1.00
C6       0.54893    0.39866    0.74614   1.00
H2       0.61875    0.45800    0.72946   1.00
C6       0.67836    0.46127    0.74589   1.00
C6       0.64744    0.40619    0.70948   1.00
H2       0.76846    0.48097    0.79686   1.00
H2       0.79590    0.51270    0.82691   1.00
H2       0.79417    0.51986    0.77582   1.00
H2       0.76108    0.58896    0.77262   1.00
H2       0.73678    0.60276    0.81563   1.00
H2       0.78464    0.58461    0.81775   1.00
H2       0.60172    0.55177    0.85994   1.00
H2       0.63032    0.51845    0.88579   1.00
H2       0.63852    0.56918    0.89137   1.00
H2       0.67362    0.58849    0.78920   1.00
H2       0.62808    0.59537    0.81105   1.00
H2       0.67050    0.60937    0.83661   1.00
H2       0.72014    0.59774    0.89330   1.00
H2       0.75208    0.57935    0.92936   1.00
H2       0.76832    0.58287    0.88163   1.00
H2       0.68402    0.54599    0.93692   1.00
H2       0.68568    0.49668    0.92399   1.00
H2       0.72328    0.51665    0.95205   1.00
H2       0.68188    0.37203    0.83755   1.00
H2       0.68309    0.33535    0.80187   1.00
H2       0.69548    0.38335    0.78920   1.00
H2       0.61625    0.31859    0.82583   1.00
H2       0.61074    0.35935    0.85622   1.00
H2       0.57622    0.34949    0.81927   1.00
H2       0.51702    0.46442    0.77839   1.00
H2       0.55935    0.48537    0.79824   1.00
H2       0.55535    0.47896    0.74718   1.00
H2       0.55916    0.36854    0.74740   1.00
H2       0.51712    0.39779    0.74879   1.00
H2       0.55585    0.41056    0.71739   1.00
H2       0.70156    0.44427    0.75947   1.00
H2       0.68881    0.47163    0.71761   1.00
H2       0.67334    0.48689    0.76383   1.00
H2       0.65544    0.42013    0.68190   1.00
H2       0.67122    0.38658    0.71764   1.00
H2       0.62157    0.38862    0.70370   1.00
C4       0.41384    0.14416    0.91219   1.00
C4       0.41355    0.18588    0.91285   1.00
C3       0.38557    0.12136    0.89224   1.00
C3       0.38306    0.20884    0.89669   1.00
C3       0.44359    0.12377    0.93302   1.00
C3       0.44538    0.20614    0.93049   1.00
C2       0.41534    0.05988    0.91385   1.00
C2       0.41466    0.27012    0.91615   1.00
C3       0.38614    0.08038    0.89322   1.00
C3       0.38376    0.24981    0.89796   1.00
C3       0.44409    0.08242    0.93304   1.00
C3       0.44471    0.24738    0.93294   1.00
H1       0.36381    0.13385    0.87631   1.00
H1       0.35934    0.19648    0.88374   1.00
C5       0.47275    0.14480    0.95356   1.00
C5       0.47755    0.18520    0.94589   1.00
H1       0.36477    0.06545    0.87848   1.00
H1       0.36108    0.26490    0.88550   1.00
H1       0.46623    0.06820    0.94721   1.00
H1       0.46647    0.26132    0.94784   1.00
O3       0.49734    0.12539    0.97877   1.00
O3       0.51179    0.20401    0.95594   1.00
Si1      0.48638    0.12253    1.02506   1.00
Si1      0.54429    0.21221    0.92212   1.00
C6       0.52369    0.08962    1.03843   1.00
C6       0.49425    0.16902    1.04564   1.00
C6       0.43972    0.10247    1.03375   1.00
C6       0.53331    0.19807    0.87374   1.00
C6       0.55052    0.26302    0.92405   1.00
C6       0.58814    0.19023    0.93752   1.00
C6       0.52870    0.05306    1.01138   1.00
H2       0.54996    0.10709    1.03395   1.00
C6       0.52677    0.07353    1.08121   1.00
H2       0.51585    0.18142    1.02581   1.00
C6       0.45953    0.19866    1.04624   1.00
C6       0.51288    0.17164    1.08726   1.00
H2       0.43990    0.07669    1.01496   1.00
C6       0.43099    0.08728    1.07599   1.00
C6       0.40230    0.12651    1.02252   1.00
C6       0.52304    0.15429    0.86597   1.00
C6       0.50366    0.22275    0.84921   1.00
H2       0.56106    0.20288    0.85886   1.00
H2       0.52317    0.27449    0.91247   1.00
C6       0.55459    0.28122    0.96578   1.00
C6       0.58386    0.28107    0.89866   1.00
H2       0.60054    0.21125    0.95800   1.00
C6       0.58411    0.15164    0.96127   1.00
C6       0.62052    0.18256    0.90619   1.00
H2       0.53314    0.06154    0.98097   1.00
H2       0.50309    0.03410    1.01270   1.00
H2       0.55418    0.03583    1.01986   1.00
H2       0.55738    0.06892    1.08896   1.00
H2       0.51437    0.09322    1.10276   1.00
H2       0.51225    0.04536    1.08461   1.00
H2       0.47006    0.22828    1.05177   1.00
H2       0.44421    0.19968    1.01845   1.00
H2       0.43863    0.19148    1.06918   1.00
H2       0.54080    0.15638    1.08849   1.00
H2       0.51895    0.20192    1.09537   1.00
H2       0.49339    0.15950    1.10937   1.00
H2       0.43670    0.10986    1.09774   1.00
H2       0.40064    0.07792    1.07935   1.00
H2       0.44837    0.06168    1.08287   1.00
H2       0.39308    0.14598    1.04599   1.00
H2       0.40601    0.14432    0.99668   1.00
H2       0.37795    0.10672    1.01665   1.00
H2       0.49245    0.14812    0.87203   1.00
H2       0.52813    0.14691    0.83535   1.00
H2       0.54080    0.13452    0.88335   1.00
H2       0.50417    0.21375    0.81859   1.00
H2       0.47378    0.21926    0.85935   1.00
H2       0.51073    0.25378    0.84949   1.00
H2       0.55161    0.31298    0.96442   1.00
H2       0.53176    0.27065    0.98537   1.00
H2       0.58282    0.27465    0.97896   1.00
H2       0.58260    0.27084    0.86854   1.00
H2       0.58121    0.31288    0.89779   1.00
H2       0.61261    0.27415    0.91056   1.00
H2       0.57053    0.12844    0.94427   1.00
H2       0.61239    0.14119    0.97163   1.00
H2       0.56617    0.15666    0.98689   1.00
H2       0.64810    0.17456    0.92013   1.00
H2       0.61236    0.15878    0.88658   1.00
H2       0.62630    0.20843    0.88862   1.00
C4       0.41219    0.41384    0.64416   1.00
C4       0.41285    0.41355    0.68588   1.00
C3       0.39224    0.38557    0.62136   1.00
C3       0.39669    0.38306    0.70884   1.00
C3       0.43302    0.44359    0.62377   1.00
C3       0.43049    0.44538    0.70614   1.00
C2       0.41385    0.41534    0.55988   1.00
C2       0.41615    0.41466    0.77012   1.00
C3       0.39322    0.38614    0.58038   1.00
C3       0.39796    0.38376    0.74981   1.00
C3       0.43304    0.44409    0.58242   1.00
C3       0.43294    0.44471    0.74738   1.00
H1       0.37631    0.36381    0.63385   1.00
H1       0.38374    0.35934    0.69648   1.00
C5       0.45356    0.47275    0.64480   1.00
C5       0.44589    0.47755    0.68520   1.00
H1       0.37848    0.36477    0.56545   1.00
H1       0.38550    0.36108    0.76490   1.00
H1       0.44721    0.46623    0.56820   1.00
H1       0.44784    0.46647    0.76132   1.00
O3       0.47877    0.49734    0.62539   1.00
O3       0.45594    0.51179    0.70401   1.00
Si1      0.52506    0.48638    0.62253   1.00
Si1      0.42212    0.54429    0.71221   1.00
C6       0.53843    0.52369    0.58962   1.00
C6       0.54564    0.49425    0.66902   1.00
C6       0.53375    0.43972    0.60247   1.00
C6       0.37374    0.53331    0.69807   1.00
C6       0.42405    0.55052    0.76302   1.00
C6       0.43752    0.58814    0.69023   1.00
C6       0.51138    0.52870    0.55306   1.00
H2       0.53395    0.54996    0.60709   1.00
C6       0.58121    0.52677    0.57353   1.00
H2       0.52581    0.51585    0.68142   1.00
C6       0.54624    0.45953    0.69866   1.00
C6       0.58726    0.51288    0.67164   1.00
H2       0.51496    0.43990    0.57669   1.00
C6       0.57599    0.43099    0.58728   1.00
C6       0.52252    0.40230    0.62651   1.00
C6       0.36597    0.52304    0.65429   1.00
C6       0.34921    0.50366    0.72275   1.00
H2       0.35886    0.56106    0.70288   1.00
H2       0.41247    0.52317    0.77449   1.00
C6       0.46578    0.55459    0.78122   1.00
C6       0.39866    0.58386    0.78107   1.00
H2       0.45800    0.60054    0.71125   1.00
C6       0.46127    0.58411    0.65164   1.00
C6       0.40619    0.62052    0.68256   1.00
H2       0.48097    0.53314    0.56154   1.00
H2       0.51270    0.50309    0.53410   1.00
H2       0.51986    0.55418    0.53583   1.00
H2       0.58896    0.55738    0.56892   1.00
H2       0.60276    0.51437    0.59322   1.00
H2       0.58461    0.51225    0.54536   1.00
H2       0.55177    0.47006    0.72828   1.00
H2       0.51845    0.44421    0.69968   1.00
H2       0.56918    0.43863    0.69148   1.00
H2       0.58849    0.54080    0.65638   1.00
H2       0.59537    0.51895    0.70192   1.00
H2       0.60937    0.49339    0.65950   1.00
H2       0.59774    0.43670    0.60986   1.00
H2       0.57935    0.40064    0.57792   1.00
H2       0.58287    0.44837    0.56168   1.00
H2       0.54599    0.39308    0.64598   1.00
H2       0.49668    0.40601    0.64432   1.00
H2       0.51665    0.37795    0.60672   1.00
H2       0.37203    0.49245    0.64812   1.00
H2       0.33535    0.52813    0.64691   1.00
H2       0.38335    0.54080    0.63452   1.00
H2       0.31859    0.50417    0.71375   1.00
H2       0.35935    0.47378    0.71926   1.00
H2       0.34949    0.51073    0.75378   1.00
H2       0.46442    0.55161    0.81298   1.00
H2       0.48537    0.53176    0.77065   1.00
H2       0.47896    0.58282    0.77465   1.00
H2       0.36854    0.58260    0.77084   1.00
H2       0.39779    0.58121    0.81288   1.00
H2       0.41056    0.61261    0.77415   1.00
H2       0.44427    0.57053    0.62844   1.00
H2       0.47163    0.61239    0.64119   1.00
H2       0.48689    0.56617    0.65666   1.00
H2       0.42013    0.64810    0.67456   1.00
H2       0.38658    0.61236    0.65878   1.00
H2       0.38862    0.62630    0.70843   1.00
C4       0.41219    0.91616    0.68584   1.00
C4       0.41285    0.91645    0.64412   1.00
C3       0.39224    0.94443    0.70864   1.00
C3       0.39669    0.94694    0.62116   1.00
C3       0.43302    0.88641    0.70623   1.00
C3       0.43049    0.88462    0.62386   1.00
C2       0.41385    0.91466    0.77012   1.00
C2       0.41615    0.91534    0.55988   1.00
C3       0.39322    0.94386    0.74962   1.00
C3       0.39796    0.94624    0.58019   1.00
C3       0.43304    0.88591    0.74758   1.00
C3       0.43294    0.88529    0.58262   1.00
H1       0.37631    0.96619    0.69615   1.00
H1       0.38374    0.97066    0.63352   1.00
C5       0.45356    0.85725    0.68520   1.00
C5       0.44589    0.85245    0.64480   1.00
H1       0.37848    0.96523    0.76455   1.00
H1       0.38550    0.96892    0.56510   1.00
H1       0.44721    0.86377    0.76180   1.00
H1       0.44784    0.86353    0.56868   1.00
O3       0.47877    0.83266    0.70461   1.00
O3       0.45594    0.81821    0.62599   1.00
Si1      0.52506    0.84362    0.70747   1.00
Si1      0.42212    0.78571    0.61779   1.00
C6       0.53843    0.80631    0.74038   1.00
C6       0.54564    0.83575    0.66098   1.00
C6       0.53375    0.89028    0.72753   1.00
C6       0.37374    0.79669    0.63193   1.00
C6       0.42405    0.77948    0.56698   1.00
C6       0.43752    0.74186    0.63977   1.00
C6       0.51138    0.80130    0.77694   1.00
H2       0.53395    0.78004    0.72291   1.00
C6       0.58121    0.80323    0.75647   1.00
H2       0.52581    0.81415    0.64858   1.00
C6       0.54624    0.87047    0.63134   1.00
C6       0.58726    0.81712    0.65836   1.00
H2       0.51496    0.89010    0.75331   1.00
C6       0.57599    0.89901    0.74272   1.00
C6       0.52252    0.92770    0.70349   1.00
C6       0.36597    0.80696    0.67571   1.00
C6       0.34921    0.82634    0.60725   1.00
H2       0.35886    0.76894    0.62712   1.00
H2       0.41247    0.80683    0.55551   1.00
C6       0.46578    0.77541    0.54878   1.00
C6       0.39866    0.74614    0.54893   1.00
H2       0.45800    0.72946    0.61875   1.00
C6       0.46127    0.74589    0.67836   1.00
C6       0.40619    0.70948    0.64744   1.00
H2       0.48097    0.79686    0.76846   1.00
H2       0.51270    0.82691    0.79590   1.00
H2       0.51986    0.77582    0.79417   1.00
H2       0.58896    0.77262    0.76108   1.00
H2       0.60276    0.81563    0.73678   1.00
H2       0.58461    0.81775    0.78464   1.00
H2       0.55177    0.85994    0.60172   1.00
H2       0.51845    0.88579    0.63032   1.00
H2       0.56918    0.89137    0.63852   1.00
H2       0.58849    0.78920    0.67362   1.00
H2       0.59537    0.81105    0.62808   1.00
H2       0.60937    0.83661    0.67050   1.00
H2       0.59774    0.89330    0.72014   1.00
H2       0.57935    0.92936    0.75208   1.00
H2       0.58287    0.88163    0.76832   1.00
H2       0.54599    0.93692    0.68402   1.00
H2       0.49668    0.92399    0.68568   1.00
H2       0.51665    0.95205    0.72328   1.00
H2       0.37203    0.83755    0.68188   1.00
H2       0.33535    0.80187    0.68309   1.00
H2       0.38335    0.78920    0.69548   1.00
H2       0.31859    0.82583    0.61625   1.00
H2       0.35935    0.85622    0.61074   1.00
H2       0.34949    0.81927    0.57622   1.00
H2       0.46442    0.77839    0.51702   1.00
H2       0.48537    0.79824    0.55935   1.00
H2       0.47896    0.74718    0.55535   1.00
H2       0.36854    0.74740    0.55916   1.00
H2       0.39779    0.74879    0.51712   1.00
H2       0.41056    0.71739    0.55585   1.00
H2       0.44427    0.75947    0.70156   1.00
H2       0.47163    0.71761    0.68881   1.00
H2       0.48689    0.76383    0.67334   1.00
H2       0.42013    0.68190    0.65544   1.00
H2       0.38658    0.71764    0.67122   1.00
H2       0.38862    0.70370    0.62157   1.00
C4       0.41616    1.18584    0.41219   1.00
C4       0.41645    1.14412    0.41285   1.00
C3       0.44443    1.20864    0.39224   1.00
C3       0.44694    1.12116    0.39669   1.00
C3       0.38641    1.20623    0.43302   1.00
C3       0.38462    1.12386    0.43049   1.00
C2       0.41466    1.27012    0.41385   1.00
C2       0.41534    1.05988    0.41615   1.00
C3       0.44386    1.24962    0.39322   1.00
C3       0.44624    1.08019    0.39796   1.00
C3       0.38591    1.24758    0.43304   1.00
C3       0.38529    1.08262    0.43294   1.00
H1       0.46619    1.19615    0.37631   1.00
H1       0.47066    1.13352    0.38374   1.00
C5       0.35725    1.18520    0.45356   1.00
C5       0.35245    1.14480    0.44589   1.00
H1       0.46523    1.26455    0.37848   1.00
H1       0.46892    1.06510    0.38550   1.00
H1       0.36377    1.26180    0.44721   1.00
H1       0.36353    1.06868    0.44784   1.00
O3       0.33266    1.20461    0.47877   1.00
O3       0.31821    1.12599    0.45594   1.00
Si1      0.34362    1.20747    0.52506   1.00
Si1      0.28571    1.11779    0.42212   1.00
C6       0.30631    1.24038    0.53843   1.00
C6       0.33575    1.16098    0.54564   1.00
C6       0.39028    1.22753    0.53375   1.00
C6       0.29669    1.13193    0.37374   1.00
C6       0.27948    1.06698    0.42405   1.00
C6       0.24186    1.13977    0.43752   1.00
C6       0.30130    1.27694    0.51138   1.00
H2       0.28004    1.22291    0.53395   1.00
C6       0.30323    1.25647    0.58121   1.00
H2       0.31415    1.14858    0.52581   1.00
C6       0.37047    1.13134    0.54624   1.00
C6       0.31712    1.15836    0.58726   1.00
H2       0.39010    1.25331    0.51496   1.00
C6       0.39901    1.24272    0.57599   1.00
C6       0.42770    1.20349    0.52252   1.00
C6       0.30696    1.17571    0.36597   1.00
C6       0.32634    1.10725    0.34921   1.00
H2       0.26894    1.12712    0.35886   1.00
H2       0.30683    1.05551    0.41247   1.00
C6       0.27541    1.04878    0.46578   1.00
C6       0.24614    1.04893    0.39866   1.00
H2       0.22946    1.11875    0.45800   1.00
C6       0.24589    1.17836    0.46127   1.00
C6       0.20948    1.14744    0.40619   1.00
H2       0.29686    1.26846    0.48097   1.00
H2       0.32691    1.29590    0.51270   1.00
H2       0.27582    1.29417    0.51986   1.00
H2       0.27262    1.26108    0.58896   1.00
H2       0.31563    1.23678    0.60276   1.00
H2       0.31775    1.28464    0.58461   1.00
H2       0.35994    1.10172    0.55177   1.00
H2       0.38579    1.13032    0.51845   1.00
H2       0.39137    1.13852    0.56918   1.00
H2       0.28920    1.17362    0.58849   1.00
H2       0.31105    1.12808    0.59537   1.00
H2       0.33661    1.17050    0.60937   1.00
H2       0.39330    1.22014    0.59774   1.00
H2       0.42936    1.25208    0.57935   1.00
H2       0.38163    1.26832    0.58287   1.00
H2       0.43692    1.18402    0.54599   1.00
H2       0.42399    1.18568    0.49668   1.00
H2       0.45205    1.22328    0.51665   1.00
H2       0.33755    1.18188    0.37203   1.00
H2       0.30187    1.18309    0.33535   1.00
H2       0.28920    1.19548    0.38335   1.00
H2       0.32583    1.11625    0.31859   1.00
H2       0.35622    1.11074    0.35935   1.00
H2       0.31927    1.07622    0.34949   1.00
H2       0.27839    1.01702    0.46442   1.00
H2       0.29824    1.05935    0.48537   1.00
H2       0.24718    1.05535    0.47896   1.00
H2       0.24740    1.05916    0.36854   1.00
H2       0.24879    1.01712    0.39779   1.00
H2       0.21739    1.05585    0.41056   1.00
H2       0.25947    1.20156    0.44427   1.00
H2       0.21761    1.18881    0.47163   1.00
H2       0.26383    1.17334    0.48689   1.00
H2       0.18190    1.15544    0.42013   1.00
H2       0.21764    1.17122    0.38658   1.00
H2       0.20370    1.12157    0.38862   1.00
C4       0.14416    0.91219    0.41384   1.00
C4       0.18588    0.91285    0.41355   1.00
C3       0.12136    0.89224    0.38557   1.00
C3       0.20884    0.89669    0.38306   1.00
C3       0.12377    0.93302    0.44359   1.00
C3       0.20614    0.93049    0.44538   1.00
C2       0.05988    0.91385    0.41534   1.00
C2       0.27012    0.91615    0.41466   1.00
C3       0.08038    0.89322    0.38614   1.00
C3       0.24981    0.89796    0.38376   1.00
C3       0.08242    0.93304    0.44409   1.00
C3       0.24738    0.93294    0.44471   1.00
H1       0.13385    0.87631    0.36381   1.00
H1       0.19648    0.88374    0.35934   1.00
C5       0.14480    0.95356    0.47275   1.00
C5       0.18520    0.94589    0.47755   1.00
H1       0.06545    0.87848    0.36477   1.00
H1       0.26490    0.88550    0.36108   1.00
H1       0.06820    0.94721    0.46623   1.00
H1       0.26132    0.94784    0.46647   1.00
O3       0.12539    0.97877    0.49734   1.00
O3       0.20401    0.95594    0.51179   1.00
Si1      0.12253    1.02506    0.48638   1.00
Si1      0.21221    0.92212    0.54429   1.00
C6       0.08962    1.03843    0.52369   1.00
C6       0.16902    1.04564    0.49425   1.00
C6       0.10247    1.03375    0.43972   1.00
C6       0.19807    0.87374    0.53331   1.00
C6       0.26302    0.92405    0.55052   1.00
C6       0.19023    0.93752    0.58814   1.00
C6       0.05306    1.01138    0.52870   1.00
H2       0.10709    1.03395    0.54996   1.00
C6       0.07353    1.08121    0.52677   1.00
H2       0.18142    1.02581    0.51585   1.00
C6       0.19866    1.04624    0.45953   1.00
C6       0.17164    1.08726    0.51288   1.00
H2       0.07669    1.01496    0.43990   1.00
C6       0.08728    1.07599    0.43099   1.00
C6       0.12651    1.02252    0.40230   1.00
C6       0.15429    0.86597    0.52304   1.00
C6       0.22275    0.84921    0.50366   1.00
H2       0.20288    0.85886    0.56106   1.00
H2       0.27449    0.91247    0.52317   1.00
C6       0.28122    0.96578    0.55459   1.00
C6       0.28107    0.89866    0.58386   1.00
H2       0.21125    0.95800    0.60054   1.00
C6       0.15164    0.96127    0.58411   1.00
C6       0.18256    0.90619    0.62052   1.00
H2       0.06154    0.98097    0.53314   1.00
H2       0.03410    1.01270    0.50309   1.00
H2       0.03583    1.01986    0.55418   1.00
H2       0.06892    1.08896    0.55738   1.00
H2       0.09322    1.10276    0.51437   1.00
H2       0.04536    1.08461    0.51225   1.00
H2       0.22828    1.05177    0.47006   1.00
H2       0.19968    1.01845    0.44421   1.00
H2       0.19148    1.06918    0.43863   1.00
H2       0.15638    1.08849    0.54080   1.00
H2       0.20192    1.09537    0.51895   1.00
H2       0.15950    1.10937    0.49339   1.00
H2       0.10986    1.09774    0.43670   1.00
H2       0.07792    1.07935    0.40064   1.00
H2       0.06168    1.08287    0.44837   1.00
H2       0.14598    1.04599    0.39308   1.00
H2       0.14432    0.99668    0.40601   1.00
H2       0.10672    1.01665    0.37795   1.00
H2       0.14812    0.87203    0.49245   1.00
H2       0.14691    0.83535    0.52813   1.00
H2       0.13452    0.88335    0.54080   1.00
H2       0.21375    0.81859    0.50417   1.00
H2       0.21926    0.85935    0.47378   1.00
H2       0.25378    0.84949    0.51073   1.00
H2       0.31298    0.96442    0.55161   1.00
H2       0.27065    0.98537    0.53176   1.00
H2       0.27465    0.97896    0.58282   1.00
H2       0.27084    0.86854    0.58260   1.00
H2       0.31288    0.89779    0.58121   1.00
H2       0.27415    0.91056    0.61261   1.00
H2       0.12844    0.94427    0.57053   1.00
H2       0.14119    0.97163    0.61239   1.00
H2       0.15666    0.98689    0.56617   1.00
H2       0.17456    0.92013    0.64810   1.00
H2       0.15878    0.88658    0.61236   1.00
H2       0.20843    0.88862    0.62630   1.00
C4       0.68584    0.91219    0.41616   1.00
C4       0.64412    0.91285    0.41645   1.00
C3       0.70864    0.89224    0.44443   1.00
C3       0.62116    0.89669    0.44694   1.00
C3       0.70623    0.93302    0.38641   1.00
C3       0.62386    0.93049    0.38462   1.00
C2       0.77012    0.91385    0.41466   1.00
C2       0.55988    0.91615    0.41534   1.00
C3       0.74962    0.89322    0.44386   1.00
C3       0.58019    0.89796    0.44624   1.00
C3       0.74758    0.93304    0.38591   1.00
C3       0.58262    0.93294    0.38529   1.00
H1       0.69615    0.87631    0.46619   1.00
H1       0.63352    0.88374    0.47066   1.00
C5       0.68520    0.95356    0.35725   1.00
C5       0.64480    0.94589    0.35245   1.00
H1       0.76455    0.87848    0.46523   1.00
H1       0.56510    0.88550    0.46892   1.00
H1       0.76180    0.94721    0.36377   1.00
H1       0.56868    0.94784    0.36353   1.00
O3       0.70461    0.97877    0.33266   1.00
O3       0.62599    0.95594    0.31821   1.00
Si1      0.70747    1.02506    0.34362   1.00
Si1      0.61779    0.92212    0.28571   1.00
C6       0.74038    1.03843    0.30631   1.00
C6       0.66098    1.04564    0.33575   1.00
C6       0.72753    1.03375    0.39028   1.00
C6       0.63193    0.87374    0.29669   1.00
C6       0.56698    0.92405    0.27948   1.00
C6       0.63977    0.93752    0.24186   1.00
C6       0.77694    1.01138    0.30130   1.00
H2       0.72291    1.03395    0.28004   1.00
C6       0.75647    1.08121    0.30323   1.00
H2       0.64858    1.02581    0.31415   1.00
C6       0.63134    1.04624    0.37047   1.00
C6       0.65836    1.08726    0.31712   1.00
H2       0.75331    1.01496    0.39010   1.00
C6       0.74272    1.07599    0.39901   1.00
C6       0.70349    1.02252    0.42770   1.00
C6       0.67571    0.86597    0.30696   1.00
C6       0.60725    0.84921    0.32634   1.00
H2       0.62712    0.85886    0.26894   1.00
H2       0.55551    0.91247    0.30683   1.00
C6       0.54878    0.96578    0.27541   1.00
C6       0.54893    0.89866    0.24614   1.00
H2       0.61875    0.95800    0.22946   1.00
C6       0.67836    0.96127    0.24589   1.00
C6       0.64744    0.90619    0.20948   1.00
H2       0.76846    0.98097    0.29686   1.00
H2       0.79590    1.01270    0.32691   1.00
H2       0.79417    1.01986    0.27582   1.00
H2       0.76108    1.08896    0.27262   1.00
H2       0.73678    1.10276    0.31563   1.00
H2       0.78464    1.08461    0.31775   1.00
H2       0.60172    1.05177    0.35994   1.00
H2       0.63032    1.01845    0.38579   1.00
H2       0.63852    1.06918    0.39137   1.00
H2       0.67362    1.08849    0.28920   1.00
H2       0.62808    1.09537    0.31105   1.00
H2       0.67050    1.10937    0.33661   1.00
H2       0.72014    1.09774    0.39330   1.00
H2       0.75208    1.07935    0.42936   1.00
H2       0.76832    1.08287    0.38163   1.00
H2       0.68402    1.04599    0.43692   1.00
H2       0.68568    0.99668    0.42399   1.00
H2       0.72328    1.01665    0.45205   1.00
H2       0.68188    0.87203    0.33755   1.00
H2       0.68309    0.83535    0.30187   1.00
H2       0.69548    0.88335    0.28920   1.00
H2       0.61625    0.81859    0.32583   1.00
H2       0.61074    0.85935    0.35622   1.00
H2       0.57622    0.84949    0.31927   1.00
H2       0.51702    0.96442    0.27839   1.00
H2       0.55935    0.98537    0.29824   1.00
H2       0.55535    0.97896    0.24718   1.00
H2       0.55916    0.86854    0.24740   1.00
H2       0.51712    0.89779    0.24879   1.00
H2       0.55585    0.91056    0.21739   1.00
H2       0.70156    0.94427    0.25947   1.00
H2       0.68881    0.97163    0.21761   1.00
H2       0.67334    0.98689    0.26383   1.00
H2       0.65544    0.92013    0.18190   1.00
H2       0.67122    0.88658    0.21764   1.00
H2       0.62157    0.88862    0.20370   1.00
C4       0.41384    0.64416    0.41219   1.00
C4       0.41355    0.68588    0.41285   1.00
C3       0.38557    0.62136    0.39224   1.00
C3       0.38306    0.70884    0.39669   1.00
C3       0.44359    0.62377    0.43302   1.00
C3       0.44538    0.70614    0.43049   1.00
C2       0.41534    0.55988    0.41385   1.00
C2       0.41466    0.77012    0.41615   1.00
C3       0.38614    0.58038    0.39322   1.00
C3       0.38376    0.74981    0.39796   1.00
C3       0.44409    0.58242    0.43304   1.00
C3       0.44471    0.74738    0.43294   1.00
H1       0.36381    0.63385    0.37631   1.00
H1       0.35934    0.69648    0.38374   1.00
C5       0.47275    0.64480    0.45356   1.00
C5       0.47755    0.68520    0.44589   1.00
H1       0.36477    0.56545    0.37848   1.00
H1       0.36108    0.76490    0.38550   1.00
H1       0.46623    0.56820    0.44721   1.00
H1       0.46647    0.76132    0.44784   1.00
O3       0.49734    0.62539    0.47877   1.00
O3       0.51179    0.70401    0.45594   1.00
Si1      0.48638    0.62253    0.52506   1.00
Si1      0.54429    0.71221    0.42212   1.00
C6       0.52369    0.58962    0.53843   1.00
C6       0.49425    0.66902    0.54564   1.00
C6       0.43972    0.60247    0.53375   1.00
C6       0.53331    0.69807    0.37374   1.00
C6       0.55052    0.76302    0.42405   1.00
C6       0.58814    0.69023    0.43752   1.00
C6       0.52870    0.55306    0.51138   1.00
H2       0.54996    0.60709    0.53395   1.00
C6       0.52677    0.57353    0.58121   1.00
H2       0.51585    0.68142    0.52581   1.00
C6       0.45953    0.69866    0.54624   1.00
C6       0.51288    0.67164    0.58726   1.00
H2       0.43990    0.57669    0.51496   1.00
C6       0.43099    0.58728    0.57599   1.00
C6       0.40230    0.62651    0.52252   1.00
C6       0.52304    0.65429    0.36597   1.00
C6       0.50366    0.72275    0.34921   1.00
H2       0.56106    0.70288    0.35886   1.00
H2       0.52317    0.77449    0.41247   1.00
C6       0.55459    0.78122    0.46578   1.00
C6       0.58386    0.78107    0.39866   1.00
H2       0.60054    0.71125    0.45800   1.00
C6       0.58411    0.65164    0.46127   1.00
C6       0.62052    0.68256    0.40619   1.00
H2       0.53314    0.56154    0.48097   1.00
H2       0.50309    0.53410    0.51270   1.00
H2       0.55418    0.53583    0.51986   1.00
H2       0.55738    0.56892    0.58896   1.00
H2       0.51437    0.59322    0.60276   1.00
H2       0.51225    0.54536    0.58461   1.00
H2       0.47006    0.72828    0.55177   1.00
H2       0.44421    0.69968    0.51845   1.00
H2       0.43863    0.69148    0.56918   1.00
H2       0.54080    0.65638    0.58849   1.00
H2       0.51895    0.70192    0.59537   1.00
H2       0.49339    0.65950    0.60937   1.00
H2       0.43670    0.60986    0.59774   1.00
H2       0.40064    0.57792    0.57935   1.00
H2       0.44837    0.56168    0.58287   1.00
H2       0.39308    0.64598    0.54599   1.00
H2       0.40601    0.64432    0.49668   1.00
H2       0.37795    0.60672    0.51665   1.00
H2       0.49245    0.64812    0.37203   1.00
H2       0.52813    0.64691    0.33535   1.00
H2       0.54080    0.63452    0.38335   1.00
H2       0.50417    0.71375    0.31859   1.00
H2       0.47378    0.71926    0.35935   1.00
H2       0.51073    0.75378    0.34949   1.00
H2       0.55161    0.81298    0.46442   1.00
H2       0.53176    0.77065    0.48537   1.00
H2       0.58282    0.77465    0.47896   1.00
H2       0.58260    0.77084    0.36854   1.00
H2       0.58121    0.81288    0.39779   1.00
H2       0.61261    0.77415    0.41056   1.00
H2       0.57053    0.62844    0.44427   1.00
H2       0.61239    0.64119    0.47163   1.00
H2       0.56617    0.65666    0.48689   1.00
H2       0.64810    0.67456    0.42013   1.00
H2       0.61236    0.65878    0.38658   1.00
H2       0.62630    0.70843    0.38862   1.00
C4       0.41219    0.91384    0.14416   1.00
C4       0.41285    0.91355    0.18588   1.00
C3       0.39224    0.88557    0.12136   1.00
C3       0.39669    0.88306    0.20884   1.00
C3       0.43302    0.94359    0.12377   1.00
C3       0.43049    0.94538    0.20614   1.00
C2       0.41385    0.91534    0.05988   1.00
C2       0.41615    0.91466    0.27012   1.00
C3       0.39322    0.88614    0.08038   1.00
C3       0.39796    0.88376    0.24981   1.00
C3       0.43304    0.94409    0.08242   1.00
C3       0.43294    0.94471    0.24738   1.00
H1       0.37631    0.86381    0.13385   1.00
H1       0.38374    0.85934    0.19648   1.00
C5       0.45356    0.97275    0.14480   1.00
C5       0.44589    0.97755    0.18520   1.00
H1       0.37848    0.86477    0.06545   1.00
H1       0.38550    0.86108    0.26490   1.00
H1       0.44721    0.96623    0.06820   1.00
H1       0.44784    0.96647    0.26132   1.00
O3       0.47877    0.99734    0.12539   1.00
O3       0.45594    1.01179    0.20401   1.00
Si1      0.52506    0.98638    0.12253   1.00
Si1      0.42212    1.04429    0.21221   1.00
C6       0.53843    1.02369    0.08962   1.00
C6       0.54564    0.99425    0.16902   1.00
C6       0.53375    0.93972    0.10247   1.00
C6       0.37374    1.03331    0.19807   1.00
C6       0.42405    1.05052    0.26302   1.00
C6       0.43752    1.08814    0.19023   1.00
C6       0.51138    1.02870    0.05306   1.00
H2       0.53395    1.04996    0.10709   1.00
C6       0.58121    1.02677    0.07353   1.00
H2       0.52581    1.01585    0.18142   1.00
C6       0.54624    0.95953    0.19866   1.00
C6       0.58726    1.01288    0.17164   1.00
H2       0.51496    0.93990    0.07669   1.00
C6       0.57599    0.93099    0.08728   1.00
C6       0.52252    0.90230    0.12651   1.00
C6       0.36597    1.02304    0.15429   1.00
C6       0.34921    1.00366    0.22275   1.00
H2       0.35886    1.06106    0.20288   1.00
H2       0.41247    1.02317    0.27449   1.00
C6       0.46578    1.05459    0.28122   1.00
C6       0.39866    1.08386    0.28107   1.00
H2       0.45800    1.10054    0.21125   1.00
C6       0.46127    1.08411    0.15164   1.00
C6       0.40619    1.12052    0.18256   1.00
H2       0.48097    1.03314    0.06154   1.00
H2       0.51270    1.00309    0.03410   1.00
H2       0.51986    1.05418    0.03583   1.00
H2       0.58896    1.05738    0.06892   1.00
H2       0.60276    1.01437    0.09322   1.00
H2       0.58461    1.01225    0.04536   1.00
H2       0.55177    0.97006    0.22828   1.00
H2       0.51845    0.94421    0.19968   1.00
H2       0.56918    0.93863    0.19148   1.00
H2       0.58849    1.04080    0.15638   1.00
H2       0.59537    1.01895    0.20192   1.00
H2       0.60937    0.99339    0.15950   1.00
H2       0.59774    0.93670    0.10986   1.00
H2       0.57935    0.90064    0.07792   1.00
H2       0.58287    0.94837    0.06168   1.00
H2       0.54599    0.89308    0.14598   1.00
H2       0.49668    0.90601    0.14432   1.00
H2       0.51665    0.87795    0.10672   1.00
H2       0.37203    0.99245    0.14812   1.00
H2       0.33535    1.02813    0.14691   1.00
H2       0.38335    1.04080    0.13452   1.00
H2       0.31859    1.00417    0.21375   1.00
H2       0.35935    0.97378    0.21926   1.00
H2       0.34949    1.01073    0.25378   1.00
H2       0.46442    1.05161    0.31298   1.00
H2       0.48537    1.03176    0.27065   1.00
H2       0.47896    1.08282    0.27465   1.00
H2       0.36854    1.08260    0.27084   1.00
H2       0.39779    1.08121    0.31288   1.00
H2       0.41056    1.11261    0.27415   1.00
H2       0.44427    1.07053    0.12844   1.00
H2       0.47163    1.11239    0.14119   1.00
H2       0.48689    1.06617    0.15666   1.00
H2       0.42013    1.14810    0.17456   1.00
H2       0.38658    1.11236    0.15878   1.00
H2       0.38862    1.12630    0.20843   1.00
C4       0.91219    0.41616    0.68584   1.00
C4       0.91285    0.41645    0.64412   1.00
C3       0.89224    0.44443    0.70864   1.00
C3       0.89669    0.44694    0.62116   1.00
C3       0.93302    0.38641    0.70623   1.00
C3       0.93049    0.38462    0.62386   1.00
C2       0.91385    0.41466    0.77012   1.00
C2       0.91615    0.41534    0.55988   1.00
C3       0.89322    0.44386    0.74962   1.00
C3       0.89796    0.44624    0.58019   1.00
C3       0.93304    0.38591    0.74758   1.00
C3       0.93294    0.38529    0.58262   1.00
H1       0.87631    0.46619    0.69615   1.00
H1       0.88374    0.47066    0.63352   1.00
C5       0.95356    0.35725    0.68520   1.00
C5       0.94589    0.35245    0.64480   1.00
H1       0.87848    0.46523    0.76455   1.00
H1       0.88550    0.46892    0.56510   1.00
H1       0.94721    0.36377    0.76180   1.00
H1       0.94784    0.36353    0.56868   1.00
O3       0.97877    0.33266    0.70461   1.00
O3       0.95594    0.31821    0.62599   1.00
Si1      1.02506    0.34362    0.70747   1.00
Si1      0.92212    0.28571    0.61779   1.00
C6       1.03843    0.30631    0.74038   1.00
C6       1.04564    0.33575    0.66098   1.00
C6       1.03375    0.39028    0.72753   1.00
C6       0.87374    0.29669    0.63193   1.00
C6       0.92405    0.27948    0.56698   1.00
C6       0.93752    0.24186    0.63977   1.00
C6       1.01138    0.30130    0.77694   1.00
H2       1.03395    0.28004    0.72291   1.00
C6       1.08121    0.30323    0.75647   1.00
H2       1.02581    0.31415    0.64858   1.00
C6       1.04624    0.37047    0.63134   1.00
C6       1.08726    0.31712    0.65836   1.00
H2       1.01496    0.39010    0.75331   1.00
C6       1.07599    0.39901    0.74272   1.00
C6       1.02252    0.42770    0.70349   1.00
C6       0.86597    0.30696    0.67571   1.00
C6       0.84921    0.32634    0.60725   1.00
H2       0.85886    0.26894    0.62712   1.00
H2       0.91247    0.30683    0.55551   1.00
C6       0.96578    0.27541    0.54878   1.00
C6       0.89866    0.24614    0.54893   1.00
H2       0.95800    0.22946    0.61875   1.00
C6       0.96127    0.24589    0.67836   1.00
C6       0.90619    0.20948    0.64744   1.00
H2       0.98097    0.29686    0.76846   1.00
H2       1.01270    0.32691    0.79590   1.00
H2       1.01986    0.27582    0.79417   1.00
H2       1.08896    0.27262    0.76108   1.00
H2       1.10276    0.31563    0.73678   1.00
H2       1.08461    0.31775    0.78464   1.00
H2       1.05177    0.35994    0.60172   1.00
H2       1.01845    0.38579    0.63032   1.00
H2       1.06918    0.39137    0.63852   1.00
H2       1.08849    0.28920    0.67362   1.00
H2       1.09537    0.31105    0.62808   1.00
H2       1.10937    0.33661    0.67050   1.00
H2       1.09774    0.39330    0.72014   1.00
H2       1.07935    0.42936    0.75208   1.00
H2       1.08287    0.38163    0.76832   1.00
H2       1.04599    0.43692    0.68402   1.00
H2       0.99668    0.42399    0.68568   1.00
H2       1.01665    0.45205    0.72328   1.00
H2       0.87203    0.33755    0.68188   1.00
H2       0.83535    0.30187    0.68309   1.00
H2       0.88335    0.28920    0.69548   1.00
H2       0.81859    0.32583    0.61625   1.00
H2       0.85935    0.35622    0.61074   1.00
H2       0.84949    0.31927    0.57622   1.00
H2       0.96442    0.27839    0.51702   1.00
H2       0.98537    0.29824    0.55935   1.00
H2       0.97896    0.24718    0.55535   1.00
H2       0.86854    0.24740    0.55916   1.00
H2       0.89779    0.24879    0.51712   1.00
H2       0.91056    0.21739    0.55585   1.00
H2       0.94427    0.25947    0.70156   1.00
H2       0.97163    0.21761    0.68881   1.00
H2       0.98689    0.26383    0.67334   1.00
H2       0.92013    0.18190    0.65544   1.00
H2       0.88658    0.21764    0.67122   1.00
H2       0.88862    0.20370    0.62157   1.00
C4       0.91616    0.68584    0.41219   1.00
C4       0.91645    0.64412    0.41285   1.00
C3       0.94443    0.70864    0.39224   1.00
C3       0.94694    0.62116    0.39669   1.00
C3       0.88641    0.70623    0.43302   1.00
C3       0.88462    0.62386    0.43049   1.00
C2       0.91466    0.77012    0.41385   1.00
C2       0.91534    0.55988    0.41615   1.00
C3       0.94386    0.74962    0.39322   1.00
C3       0.94624    0.58019    0.39796   1.00
C3       0.88591    0.74758    0.43304   1.00
C3       0.88529    0.58262    0.43294   1.00
H1       0.96619    0.69615    0.37631   1.00
H1       0.97066    0.63352    0.38374   1.00
C5       0.85725    0.68520    0.45356   1.00
C5       0.85245    0.64480    0.44589   1.00
H1       0.96523    0.76455    0.37848   1.00
H1       0.96892    0.56510    0.38550   1.00
H1       0.86377    0.76180    0.44721   1.00
H1       0.86353    0.56868    0.44784   1.00
O3       0.83266    0.70461    0.47877   1.00
O3       0.81821    0.62599    0.45594   1.00
Si1      0.84362    0.70747    0.52506   1.00
Si1      0.78571    0.61779    0.42212   1.00
C6       0.80631    0.74038    0.53843   1.00
C6       0.83575    0.66098    0.54564   1.00
C6       0.89028    0.72753    0.53375   1.00
C6       0.79669    0.63193    0.37374   1.00
C6       0.77948    0.56698    0.42405   1.00
C6       0.74186    0.63977    0.43752   1.00
C6       0.80130    0.77694    0.51138   1.00
H2       0.78004    0.72291    0.53395   1.00
C6       0.80323    0.75647    0.58121   1.00
H2       0.81415    0.64858    0.52581   1.00
C6       0.87047    0.63134    0.54624   1.00
C6       0.81712    0.65836    0.58726   1.00
H2       0.89010    0.75331    0.51496   1.00
C6       0.89901    0.74272    0.57599   1.00
C6       0.92770    0.70349    0.52252   1.00
C6       0.80696    0.67571    0.36597   1.00
C6       0.82634    0.60725    0.34921   1.00
H2       0.76894    0.62712    0.35886   1.00
H2       0.80683    0.55551    0.41247   1.00
C6       0.77541    0.54878    0.46578   1.00
C6       0.74614    0.54893    0.39866   1.00
H2       0.72946    0.61875    0.45800   1.00
C6       0.74589    0.67836    0.46127   1.00
C6       0.70948    0.64744    0.40619   1.00
H2       0.79686    0.76846    0.48097   1.00
H2       0.82691    0.79590    0.51270   1.00
H2       0.77582    0.79417    0.51986   1.00
H2       0.77262    0.76108    0.58896   1.00
H2       0.81563    0.73678    0.60276   1.00
H2       0.81775    0.78464    0.58461   1.00
H2       0.85994    0.60172    0.55177   1.00
H2       0.88579    0.63032    0.51845   1.00
H2       0.89137    0.63852    0.56918   1.00
H2       0.78920    0.67362    0.58849   1.00
H2       0.81105    0.62808    0.59537   1.00
H2       0.83661    0.67050    0.60937   1.00
H2       0.89330    0.72014    0.59774   1.00
H2       0.92936    0.75208    0.57935   1.00
H2       0.88163    0.76832    0.58287   1.00
H2       0.93692    0.68402    0.54599   1.00
H2       0.92399    0.68568    0.49668   1.00
H2       0.95205    0.72328    0.51665   1.00
H2       0.83755    0.68188    0.37203   1.00
H2       0.80187    0.68309    0.33535   1.00
H2       0.78920    0.69548    0.38335   1.00
H2       0.82583    0.61625    0.31859   1.00
H2       0.85622    0.61074    0.35935   1.00
H2       0.81927    0.57622    0.34949   1.00
H2       0.77839    0.51702    0.46442   1.00
H2       0.79824    0.55935    0.48537   1.00
H2       0.74718    0.55535    0.47896   1.00
H2       0.74740    0.55916    0.36854   1.00
H2       0.74879    0.51712    0.39779   1.00
H2       0.71739    0.55585    0.41056   1.00
H2       0.75947    0.70156    0.44427   1.00
H2       0.71761    0.68881    0.47163   1.00
H2       0.76383    0.67334    0.48689   1.00
H2       0.68190    0.65544    0.42013   1.00
H2       0.71764    0.67122    0.38658   1.00
H2       0.70370    0.62157    0.38862   1.00
C4       0.64416    0.41219    0.41384   1.00
C4       0.68588    0.41285    0.41355   1.00
C3       0.62136    0.39224    0.38557   1.00
C3       0.70884    0.39669    0.38306   1.00
C3       0.62377    0.43302    0.44359   1.00
C3       0.70614    0.43049    0.44538   1.00
C2       0.55988    0.41385    0.41534   1.00
C2       0.77012    0.41615    0.41466   1.00
C3       0.58038    0.39322    0.38614   1.00
C3       0.74981    0.39796    0.38376   1.00
C3       0.58242    0.43304    0.44409   1.00
C3       0.74738    0.43294    0.44471   1.00
H1       0.63385    0.37631    0.36381   1.00
H1       0.69648    0.38374    0.35934   1.00
C5       0.64480    0.45356    0.47275   1.00
C5       0.68520    0.44589    0.47755   1.00
H1       0.56545    0.37848    0.36477   1.00
H1       0.76490    0.38550    0.36108   1.00
H1       0.56820    0.44721    0.46623   1.00
H1       0.76132    0.44784    0.46647   1.00
O3       0.62539    0.47877    0.49734   1.00
O3       0.70401    0.45594    0.51179   1.00
Si1      0.62253    0.52506    0.48638   1.00
Si1      0.71221    0.42212    0.54429   1.00
C6       0.58962    0.53843    0.52369   1.00
C6       0.66902    0.54564    0.49425   1.00
C6       0.60247    0.53375    0.43972   1.00
C6       0.69807    0.37374    0.53331   1.00
C6       0.76302    0.42405    0.55052   1.00
C6       0.69023    0.43752    0.58814   1.00
C6       0.55306    0.51138    0.52870   1.00
H2       0.60709    0.53395    0.54996   1.00
C6       0.57353    0.58121    0.52677   1.00
H2       0.68142    0.52581    0.51585   1.00
C6       0.69866    0.54624    0.45953   1.00
C6       0.67164    0.58726    0.51288   1.00
H2       0.57669    0.51496    0.43990   1.00
C6       0.58728    0.57599    0.43099   1.00
C6       0.62651    0.52252    0.40230   1.00
C6       0.65429    0.36597    0.52304   1.00
C6       0.72275    0.34921    0.50366   1.00
H2       0.70288    0.35886    0.56106   1.00
H2       0.77449    0.41247    0.52317   1.00
C6       0.78122    0.46578    0.55459   1.00
C6       0.78107    0.39866    0.58386   1.00
H2       0.71125    0.45800    0.60054   1.00
C6       0.65164    0.46127    0.58411   1.00
C6       0.68256    0.40619    0.62052   1.00
H2       0.56154    0.48097    0.53314   1.00
H2       0.53410    0.51270    0.50309   1.00
H2       0.53583    0.51986    0.55418   1.00
H2       0.56892    0.58896    0.55738   1.00
H2       0.59322    0.60276    0.51437   1.00
H2       0.54536    0.58461    0.51225   1.00
H2       0.72828    0.55177    0.47006   1.00
H2       0.69968    0.51845    0.44421   1.00
H2       0.69148    0.56918    0.43863   1.00
H2       0.65638    0.58849    0.54080   1.00
H2       0.70192    0.59537    0.51895   1.00
H2       0.65950    0.60937    0.49339   1.00
H2       0.60986    0.59774    0.43670   1.00
H2       0.57792    0.57935    0.40064   1.00
H2       0.56168    0.58287    0.44837   1.00
H2       0.64598    0.54599    0.39308   1.00
H2       0.64432    0.49668    0.40601   1.00
H2       0.60672    0.51665    0.37795   1.00
H2       0.64812    0.37203    0.49245   1.00
H2       0.64691    0.33535    0.52813   1.00
H2       0.63452    0.38335    0.54080   1.00
H2       0.71375    0.31859    0.50417   1.00
H2       0.71926    0.35935    0.47378   1.00
H2       0.75378    0.34949    0.51073   1.00
H2       0.81298    0.46442    0.55161   1.00
H2       0.77065    0.48537    0.53176   1.00
H2       0.77465    0.47896    0.58282   1.00
H2       0.77084    0.36854    0.58260   1.00
H2       0.81288    0.39779    0.58121   1.00
H2       0.77415    0.41056    0.61261   1.00
H2       0.62844    0.44427    0.57053   1.00
H2       0.64119    0.47163    0.61239   1.00
H2       0.65666    0.48689    0.56617   1.00
H2       0.67456    0.42013    0.64810   1.00
H2       0.65878    0.38658    0.61236   1.00
H2       0.70843    0.38862    0.62630   1.00
C4       1.18584    0.41219    0.41616   1.00
C4       1.14412    0.41285    0.41645   1.00
C3       1.20864    0.39224    0.44443   1.00
C3       1.12116    0.39669    0.44694   1.00
C3       1.20623    0.43302    0.38641   1.00
C3       1.12386    0.43049    0.38462   1.00
C2       1.27012    0.41385    0.41466   1.00
C2       1.05988    0.41615    0.41534   1.00
C3       1.24962    0.39322    0.44386   1.00
C3       1.08019    0.39796    0.44624   1.00
C3       1.24758    0.43304    0.38591   1.00
C3       1.08262    0.43294    0.38529   1.00
H1       1.19615    0.37631    0.46619   1.00
H1       1.13352    0.38374    0.47066   1.00
C5       1.18520    0.45356    0.35725   1.00
C5       1.14480    0.44589    0.35245   1.00
H1       1.26455    0.37848    0.46523   1.00
H1       1.06510    0.38550    0.46892   1.00
H1       1.26180    0.44721    0.36377   1.00
H1       1.06868    0.44784    0.36353   1.00
O3       1.20461    0.47877    0.33266   1.00
O3       1.12599    0.45594    0.31821   1.00
Si1      1.20747    0.52506    0.34362   1.00
Si1      1.11779    0.42212    0.28571   1.00
C6       1.24038    0.53843    0.30631   1.00
C6       1.16098    0.54564    0.33575   1.00
C6       1.22753    0.53375    0.39028   1.00
C6       1.13193    0.37374    0.29669   1.00
C6       1.06698    0.42405    0.27948   1.00
C6       1.13977    0.43752    0.24186   1.00
C6       1.27694    0.51138    0.30130   1.00
H2       1.22291    0.53395    0.28004   1.00
C6       1.25647    0.58121    0.30323   1.00
H2       1.14858    0.52581    0.31415   1.00
C6       1.13134    0.54624    0.37047   1.00
C6       1.15836    0.58726    0.31712   1.00
H2       1.25331    0.51496    0.39010   1.00
C6       1.24272    0.57599    0.39901   1.00
C6       1.20349    0.52252    0.42770   1.00
C6       1.17571    0.36597    0.30696   1.00
C6       1.10725    0.34921    0.32634   1.00
H2       1.12712    0.35886    0.26894   1.00
H2       1.05551    0.41247    0.30683   1.00
C6       1.04878    0.46578    0.27541   1.00
C6       1.04893    0.39866    0.24614   1.00
H2       1.11875    0.45800    0.22946   1.00
C6       1.17836    0.46127    0.24589   1.00
C6       1.14744    0.40619    0.20948   1.00
H2       1.26846    0.48097    0.29686   1.00
H2       1.29590    0.51270    0.32691   1.00
H2       1.29417    0.51986    0.27582   1.00
H2       1.26108    0.58896    0.27262   1.00
H2       1.23678    0.60276    0.31563   1.00
H2       1.28464    0.58461    0.31775   1.00
H2       1.10172    0.55177    0.35994   1.00
H2       1.13032    0.51845    0.38579   1.00
H2       1.13852    0.56918    0.39137   1.00
H2       1.17362    0.58849    0.28920   1.00
H2       1.12808    0.59537    0.31105   1.00
H2       1.17050    0.60937    0.33661   1.00
H2       1.22014    0.59774    0.39330   1.00
H2       1.25208    0.57935    0.42936   1.00
H2       1.26832    0.58287    0.38163   1.00
H2       1.18402    0.54599    0.43692   1.00
H2       1.18568    0.49668    0.42399   1.00
H2       1.22328    0.51665    0.45205   1.00
H2       1.18188    0.37203    0.33755   1.00
H2       1.18309    0.33535    0.30187   1.00
H2       1.19548    0.38335    0.28920   1.00
H2       1.11625    0.31859    0.32583   1.00
H2       1.11074    0.35935    0.35622   1.00
H2       1.07622    0.34949    0.31927   1.00
H2       1.01702    0.46442    0.27839   1.00
H2       1.05935    0.48537    0.29824   1.00
H2       1.05535    0.47896    0.24718   1.00
H2       1.05916    0.36854    0.24740   1.00
H2       1.01712    0.39779    0.24879   1.00
H2       1.05585    0.41056    0.21739   1.00
H2       1.20156    0.44427    0.25947   1.00
H2       1.18881    0.47163    0.21761   1.00
H2       1.17334    0.48689    0.26383   1.00
H2       1.15544    0.42013    0.18190   1.00
H2       1.17122    0.38658    0.21764   1.00
H2       1.12157    0.38862    0.20370   1.00
C4       0.91384    0.14416    0.41219   1.00
C4       0.91355    0.18588    0.41285   1.00
C3       0.88557    0.12136    0.39224   1.00
C3       0.88306    0.20884    0.39669   1.00
C3       0.94359    0.12377    0.43302   1.00
C3       0.94538    0.20614    0.43049   1.00
C2       0.91534    0.05988    0.41385   1.00
C2       0.91466    0.27012    0.41615   1.00
C3       0.88614    0.08038    0.39322   1.00
C3       0.88376    0.24981    0.39796   1.00
C3       0.94409    0.08242    0.43304   1.00
C3       0.94471    0.24738    0.43294   1.00
H1       0.86381    0.13385    0.37631   1.00
H1       0.85934    0.19648    0.38374   1.00
C5       0.97275    0.14480    0.45356   1.00
C5       0.97755    0.18520    0.44589   1.00
H1       0.86477    0.06545    0.37848   1.00
H1       0.86108    0.26490    0.38550   1.00
H1       0.96623    0.06820    0.44721   1.00
H1       0.96647    0.26132    0.44784   1.00
O3       0.99734    0.12539    0.47877   1.00
O3       1.01179    0.20401    0.45594   1.00
Si1      0.98638    0.12253    0.52506   1.00
Si1      1.04429    0.21221    0.42212   1.00
C6       1.02369    0.08962    0.53843   1.00
C6       0.99425    0.16902    0.54564   1.00
C6       0.93972    0.10247    0.53375   1.00
C6       1.03331    0.19807    0.37374   1.00
C6       1.05052    0.26302    0.42405   1.00
C6       1.08814    0.19023    0.43752   1.00
C6       1.02870    0.05306    0.51138   1.00
H2       1.04996    0.10709    0.53395   1.00
C6       1.02677    0.07353    0.58121   1.00
H2       1.01585    0.18142    0.52581   1.00
C6       0.95953    0.19866    0.54624   1.00
C6       1.01288    0.17164    0.58726   1.00
H2       0.93990    0.07669    0.51496   1.00
C6       0.93099    0.08728    0.57599   1.00
C6       0.90230    0.12651    0.52252   1.00
C6       1.02304    0.15429    0.36597   1.00
C6       1.00366    0.22275    0.34921   1.00
H2       1.06106    0.20288    0.35886   1.00
H2       1.02317    0.27449    0.41247   1.00
C6       1.05459    0.28122    0.46578   1.00
C6       1.08386    0.28107    0.39866   1.00
H2       1.10054    0.21125    0.45800   1.00
C6       1.08411    0.15164    0.46127   1.00
C6       1.12052    0.18256    0.40619   1.00
H2       1.03314    0.06154    0.48097   1.00
H2       1.00309    0.03410    0.51270   1.00
H2       1.05418    0.03583    0.51986   1.00
H2       1.05738    0.06892    0.58896   1.00
H2       1.01437    0.09322    0.60276   1.00
H2       1.01225    0.04536    0.58461   1.00
H2       0.97006    0.22828    0.55177   1.00
H2       0.94421    0.19968    0.51845   1.00
H2       0.93863    0.19148    0.56918   1.00
H2       1.04080    0.15638    0.58849   1.00
H2       1.01895    0.20192    0.59537   1.00
H2       0.99339    0.15950    0.60937   1.00
H2       0.93670    0.10986    0.59774   1.00
H2       0.90064    0.07792    0.57935   1.00
H2       0.94837    0.06168    0.58287   1.00
H2       0.89308    0.14598    0.54599   1.00
H2       0.90601    0.14432    0.49668   1.00
H2       0.87795    0.10672    0.51665   1.00
H2       0.99245    0.14812    0.37203   1.00
H2       1.02813    0.14691    0.33535   1.00
H2       1.04080    0.13452    0.38335   1.00
H2       1.00417    0.21375    0.31859   1.00
H2       0.97378    0.21926    0.35935   1.00
H2       1.01073    0.25378    0.34949   1.00
H2       1.05161    0.31298    0.46442   1.00
H2       1.03176    0.27065    0.48537   1.00
H2       1.08282    0.27465    0.47896   1.00
H2       1.08260    0.27084    0.36854   1.00
H2       1.08121    0.31288    0.39779   1.00
H2       1.11261    0.27415    0.41056   1.00
H2       1.07053    0.12844    0.44427   1.00
H2       1.11239    0.14119    0.47163   1.00
H2       1.06617    0.15666    0.48689   1.00
H2       1.14810    0.17456    0.42013   1.00
H2       1.11236    0.15878    0.38658   1.00
H2       1.12630    0.20843    0.38862   1.00
C4       0.91219    0.41384    0.14416   1.00
C4       0.91285    0.41355    0.18588   1.00
C3       0.89224    0.38557    0.12136   1.00
C3       0.89669    0.38306    0.20884   1.00
C3       0.93302    0.44359    0.12377   1.00
C3       0.93049    0.44538    0.20614   1.00
C2       0.91385    0.41534    0.05988   1.00
C2       0.91615    0.41466    0.27012   1.00
C3       0.89322    0.38614    0.08038   1.00
C3       0.89796    0.38376    0.24981   1.00
C3       0.93304    0.44409    0.08242   1.00
C3       0.93294    0.44471    0.24738   1.00
H1       0.87631    0.36381    0.13385   1.00
H1       0.88374    0.35934    0.19648   1.00
C5       0.95356    0.47275    0.14480   1.00
C5       0.94589    0.47755    0.18520   1.00
H1       0.87848    0.36477    0.06545   1.00
H1       0.88550    0.36108    0.26490   1.00
H1       0.94721    0.46623    0.06820   1.00
H1       0.94784    0.46647    0.26132   1.00
O3       0.97877    0.49734    0.12539   1.00
O3       0.95594    0.51179    0.20401   1.00
Si1      1.02506    0.48638    0.12253   1.00
Si1      0.92212    0.54429    0.21221   1.00
C6       1.03843    0.52369    0.08962   1.00
C6       1.04564    0.49425    0.16902   1.00
C6       1.03375    0.43972    0.10247   1.00
C6       0.87374    0.53331    0.19807   1.00
C6       0.92405    0.55052    0.26302   1.00
C6       0.93752    0.58814    0.19023   1.00
C6       1.01138    0.52870    0.05306   1.00
H2       1.03395    0.54996    0.10709   1.00
C6       1.08121    0.52677    0.07353   1.00
H2       1.02581    0.51585    0.18142   1.00
C6       1.04624    0.45953    0.19866   1.00
C6       1.08726    0.51288    0.17164   1.00
H2       1.01496    0.43990    0.07669   1.00
C6       1.07599    0.43099    0.08728   1.00
C6       1.02252    0.40230    0.12651   1.00
C6       0.86597    0.52304    0.15429   1.00
C6       0.84921    0.50366    0.22275   1.00
H2       0.85886    0.56106    0.20288   1.00
H2       0.91247    0.52317    0.27449   1.00
C6       0.96578    0.55459    0.28122   1.00
C6       0.89866    0.58386    0.28107   1.00
H2       0.95800    0.60054    0.21125   1.00
C6       0.96127    0.58411    0.15164   1.00
C6       0.90619    0.62052    0.18256   1.00
H2       0.98097    0.53314    0.06154   1.00
H2       1.01270    0.50309    0.03410   1.00
H2       1.01986    0.55418    0.03583   1.00
H2       1.08896    0.55738    0.06892   1.00
H2       1.10276    0.51437    0.09322   1.00
H2       1.08461    0.51225    0.04536   1.00
H2       1.05177    0.47006    0.22828   1.00
H2       1.01845    0.44421    0.19968   1.00
H2       1.06918    0.43863    0.19148   1.00
H2       1.08849    0.54080    0.15638   1.00
H2       1.09537    0.51895    0.20192   1.00
H2       1.10937    0.49339    0.15950   1.00
H2       1.09774    0.43670    0.10986   1.00
H2       1.07935    0.40064    0.07792   1.00
H2       1.08287    0.44837    0.06168   1.00
H2       1.04599    0.39308    0.14598   1.00
H2       0.99668    0.40601    0.14432   1.00
H2       1.01665    0.37795    0.10672   1.00
H2       0.87203    0.49245    0.14812   1.00
H2       0.83535    0.52813    0.14691   1.00
H2       0.88335    0.54080    0.13452   1.00
H2       0.81859    0.50417    0.21375   1.00
H2       0.85935    0.47378    0.21926   1.00
H2       0.84949    0.51073    0.25378   1.00
H2       0.96442    0.55161    0.31298   1.00
H2       0.98537    0.53176    0.27065   1.00
H2       0.97896    0.58282    0.27465   1.00
H2       0.86854    0.58260    0.27084   1.00
H2       0.89779    0.58121    0.31288   1.00
H2       0.91056    0.61261    0.27415   1.00
H2       0.94427    0.57053    0.12844   1.00
H2       0.97163    0.61239    0.14119   1.00
H2       0.98689    0.56617    0.15666   1.00
H2       0.92013    0.64810    0.17456   1.00
H2       0.88658    0.61236    0.15878   1.00
H2       0.88862    0.62630    0.20843   1.00
