data_IRMOF10_SG202_interpen_Ligand11cp_label_b.

_audit_creation_method             'generated by an auxiliary program of Tobunporous'

_symmetry_space_group_name_H-M     'P 1'
_symmetry_Int_Tables_number        1
_symmetry_cell_setting             triclinic

_cell_length_a                    34.2800
_cell_length_b                    34.2800
_cell_length_c                    34.2800
_cell_angle_alpha                 90.0000
_cell_angle_beta                  90.0000
_cell_angle_gamma                 90.0000

loop_
_atom_site_label
_atom_site_fract_x
_atom_site_fract_y
_atom_site_fract_z
_atom_site_occupancy
O1       0.75000    0.75000    0.75000   1.00
Zn1      0.71720    0.78280    0.78280   1.00
Zn1      0.78280    0.71720    0.78280   1.00
Zn1      0.78280    0.78280    0.71720   1.00
Zn1      0.71720    0.71720    0.71720   1.00
O2       0.72650    0.77350    0.83820   1.00
O2       0.72650    0.83820    0.77350   1.00
O2       0.66180    0.77350    0.77350   1.00
O2       0.77350    0.72650    0.83820   1.00
O2       0.83820    0.72650    0.77350   1.00
O2       0.77350    0.66180    0.77350   1.00
O2       0.77350    0.83820    0.72650   1.00
O2       0.83820    0.77350    0.72650   1.00
O2       0.77350    0.77350    0.66180   1.00
O2       0.66180    0.72650    0.72650   1.00
O2       0.72650    0.66180    0.72650   1.00
O2       0.72650    0.72650    0.66180   1.00
C1       0.75000    0.75000    0.85520   1.00
C1       0.75000    0.85520    0.75000   1.00
C1       0.64480    0.75000    0.75000   1.00
C1       0.85520    0.75000    0.75000   1.00
C1       0.75000    0.64480    0.75000   1.00
C1       0.75000    0.75000    0.64480   1.00
O1       0.25000    0.25000    0.75000   1.00
Zn1      0.21720    0.28280    0.78280   1.00
Zn1      0.28280    0.21720    0.78280   1.00
Zn1      0.28280    0.28280    0.71720   1.00
Zn1      0.21720    0.21720    0.71720   1.00
O2       0.22650    0.27350    0.83820   1.00
O2       0.22650    0.33820    0.77350   1.00
O2       0.16180    0.27350    0.77350   1.00
O2       0.27350    0.22650    0.83820   1.00
O2       0.33820    0.22650    0.77350   1.00
O2       0.27350    0.16180    0.77350   1.00
O2       0.27350    0.33820    0.72650   1.00
O2       0.33820    0.27350    0.72650   1.00
O2       0.27350    0.27350    0.66180   1.00
O2       0.16180    0.22650    0.72650   1.00
O2       0.22650    0.16180    0.72650   1.00
O2       0.22650    0.22650    0.66180   1.00
C1       0.25000    0.25000    0.85520   1.00
C1       0.25000    0.35520    0.75000   1.00
C1       0.14480    0.25000    0.75000   1.00
C1       0.35520    0.25000    0.75000   1.00
C1       0.25000    0.14480    0.75000   1.00
C1       0.25000    0.25000    0.64480   1.00
O1       0.25000    0.75000    0.25000   1.00
Zn1      0.21720    0.78280    0.28280   1.00
Zn1      0.28280    0.71720    0.28280   1.00
Zn1      0.28280    0.78280    0.21720   1.00
Zn1      0.21720    0.71720    0.21720   1.00
O2       0.22650    0.77350    0.33820   1.00
O2       0.22650    0.83820    0.27350   1.00
O2       0.16180    0.77350    0.27350   1.00
O2       0.27350    0.72650    0.33820   1.00
O2       0.33820    0.72650    0.27350   1.00
O2       0.27350    0.66180    0.27350   1.00
O2       0.27350    0.83820    0.22650   1.00
O2       0.33820    0.77350    0.22650   1.00
O2       0.27350    0.77350    0.16180   1.00
O2       0.16180    0.72650    0.22650   1.00
O2       0.22650    0.66180    0.22650   1.00
O2       0.22650    0.72650    0.16180   1.00
C1       0.25000    0.75000    0.35520   1.00
C1       0.25000    0.85520    0.25000   1.00
C1       0.14480    0.75000    0.25000   1.00
C1       0.35520    0.75000    0.25000   1.00
C1       0.25000    0.64480    0.25000   1.00
C1       0.25000    0.75000    0.14480   1.00
O1       0.75000    0.25000    0.25000   1.00
Zn1      0.71720    0.28280    0.28280   1.00
Zn1      0.78280    0.21720    0.28280   1.00
Zn1      0.78280    0.28280    0.21720   1.00
Zn1      0.71720    0.21720    0.21720   1.00
O2       0.72650    0.27350    0.33820   1.00
O2       0.72650    0.33820    0.27350   1.00
O2       0.66180    0.27350    0.27350   1.00
O2       0.77350    0.22650    0.33820   1.00
O2       0.83820    0.22650    0.27350   1.00
O2       0.77350    0.16180    0.27350   1.00
O2       0.77350    0.33820    0.22650   1.00
O2       0.83820    0.27350    0.22650   1.00
O2       0.77350    0.27350    0.16180   1.00
O2       0.66180    0.22650    0.22650   1.00
O2       0.72650    0.16180    0.22650   1.00
O2       0.72650    0.22650    0.16180   1.00
C1       0.75000    0.25000    0.35520   1.00
C1       0.75000    0.35520    0.25000   1.00
C1       0.64480    0.25000    0.25000   1.00
C1       0.85520    0.25000    0.25000   1.00
C1       0.75000    0.14480    0.25000   1.00
C1       0.75000    0.25000    0.14480   1.00
O1       0.25000    0.25000    0.25000   1.00
Zn1      0.28280    0.21720    0.21720   1.00
Zn1      0.21720    0.28280    0.21720   1.00
Zn1      0.21720    0.21720    0.28280   1.00
Zn1      0.28280    0.28280    0.28280   1.00
O2       0.27350    0.22650    0.16180   1.00
O2       0.27350    0.16180    0.22650   1.00
O2       0.33820    0.22650    0.22650   1.00
O2       0.22650    0.27350    0.16180   1.00
O2       0.16180    0.27350    0.22650   1.00
O2       0.22650    0.33820    0.22650   1.00
O2       0.22650    0.16180    0.27350   1.00
O2       0.16180    0.22650    0.27350   1.00
O2       0.22650    0.22650    0.33820   1.00
O2       0.33820    0.27350    0.27350   1.00
O2       0.27350    0.33820    0.27350   1.00
O2       0.27350    0.27350    0.33820   1.00
C1       0.25000    0.25000    0.14480   1.00
C1       0.25000    0.14480    0.25000   1.00
C1       0.35520    0.25000    0.25000   1.00
C1       0.14480    0.25000    0.25000   1.00
C1       0.25000    0.35520    0.25000   1.00
C1       0.25000    0.25000    0.35520   1.00
O1       0.75000    0.75000    0.25000   1.00
Zn1      0.78280    0.71720    0.21720   1.00
Zn1      0.71720    0.78280    0.21720   1.00
Zn1      0.71720    0.71720    0.28280   1.00
Zn1      0.78280    0.78280    0.28280   1.00
O2       0.77350    0.72650    0.16180   1.00
O2       0.77350    0.66180    0.22650   1.00
O2       0.83820    0.72650    0.22650   1.00
O2       0.72650    0.77350    0.16180   1.00
O2       0.66180    0.77350    0.22650   1.00
O2       0.72650    0.83820    0.22650   1.00
O2       0.72650    0.66180    0.27350   1.00
O2       0.66180    0.72650    0.27350   1.00
O2       0.72650    0.72650    0.33820   1.00
O2       0.83820    0.77350    0.27350   1.00
O2       0.77350    0.83820    0.27350   1.00
O2       0.77350    0.77350    0.33820   1.00
C1       0.75000    0.75000    0.14480   1.00
C1       0.75000    0.64480    0.25000   1.00
C1       0.85520    0.75000    0.25000   1.00
C1       0.64480    0.75000    0.25000   1.00
C1       0.75000    0.85520    0.25000   1.00
C1       0.75000    0.75000    0.35520   1.00
O1       0.75000    0.25000    0.75000   1.00
Zn1      0.78280    0.21720    0.71720   1.00
Zn1      0.71720    0.28280    0.71720   1.00
Zn1      0.71720    0.21720    0.78280   1.00
Zn1      0.78280    0.28280    0.78280   1.00
O2       0.77350    0.22650    0.66180   1.00
O2       0.77350    0.16180    0.72650   1.00
O2       0.83820    0.22650    0.72650   1.00
O2       0.72650    0.27350    0.66180   1.00
O2       0.66180    0.27350    0.72650   1.00
O2       0.72650    0.33820    0.72650   1.00
O2       0.72650    0.16180    0.77350   1.00
O2       0.66180    0.22650    0.77350   1.00
O2       0.72650    0.22650    0.83820   1.00
O2       0.83820    0.27350    0.77350   1.00
O2       0.77350    0.33820    0.77350   1.00
O2       0.77350    0.27350    0.83820   1.00
C1       0.75000    0.25000    0.64480   1.00
C1       0.75000    0.14480    0.75000   1.00
C1       0.85520    0.25000    0.75000   1.00
C1       0.64480    0.25000    0.75000   1.00
C1       0.75000    0.35520    0.75000   1.00
C1       0.75000    0.25000    0.85520   1.00
O1       0.25000    0.75000    0.75000   1.00
Zn1      0.28280    0.71720    0.71720   1.00
Zn1      0.21720    0.78280    0.71720   1.00
Zn1      0.21720    0.71720    0.78280   1.00
Zn1      0.28280    0.78280    0.78280   1.00
O2       0.27350    0.72650    0.66180   1.00
O2       0.27350    0.66180    0.72650   1.00
O2       0.33820    0.72650    0.72650   1.00
O2       0.22650    0.77350    0.66180   1.00
O2       0.16180    0.77350    0.72650   1.00
O2       0.22650    0.83820    0.72650   1.00
O2       0.22650    0.66180    0.77350   1.00
O2       0.16180    0.72650    0.77350   1.00
O2       0.22650    0.72650    0.83820   1.00
O2       0.33820    0.77350    0.77350   1.00
O2       0.27350    0.83820    0.77350   1.00
O2       0.27350    0.77350    0.83820   1.00
C1       0.25000    0.75000    0.64480   1.00
C1       0.25000    0.64480    0.75000   1.00
C1       0.35520    0.75000    0.75000   1.00
C1       0.14480    0.75000    0.75000   1.00
C1       0.25000    0.85520    0.75000   1.00
C1       0.25000    0.75000    0.85520   1.00
O1       0.91500    0.91500    0.91500   1.00
Zn1      0.88220    0.94780    0.94780   1.00
Zn1      0.94780    0.88220    0.94780   1.00
Zn1      0.94780    0.94780    0.88220   1.00
Zn1      0.88220    0.88220    0.88220   1.00
O2       0.89150    0.93850    1.00320   1.00
O2       0.89150    1.00320    0.93850   1.00
O2       0.82680    0.93850    0.93850   1.00
O2       0.93850    0.89150    1.00320   1.00
O2       1.00320    0.89150    0.93850   1.00
O2       0.93850    0.82680    0.93850   1.00
O2       0.93850    1.00320    0.89150   1.00
O2       1.00320    0.93850    0.89150   1.00
O2       0.93850    0.93850    0.82680   1.00
O2       0.82680    0.89150    0.89150   1.00
O2       0.89150    0.82680    0.89150   1.00
O2       0.89150    0.89150    0.82680   1.00
C1       0.91500    0.91500    1.02020   1.00
C1       0.91500    1.02020    0.91500   1.00
C1       0.80980    0.91500    0.91500   1.00
C1       1.02020    0.91500    0.91500   1.00
C1       0.91500    0.80980    0.91500   1.00
C1       0.91500    0.91500    0.80980   1.00
O1       0.41500    0.41500    0.91500   1.00
Zn1      0.38220    0.44780    0.94780   1.00
Zn1      0.44780    0.38220    0.94780   1.00
Zn1      0.44780    0.44780    0.88220   1.00
Zn1      0.38220    0.38220    0.88220   1.00
O2       0.39150    0.43850    1.00320   1.00
O2       0.39150    0.50320    0.93850   1.00
O2       0.32680    0.43850    0.93850   1.00
O2       0.43850    0.39150    1.00320   1.00
O2       0.50320    0.39150    0.93850   1.00
O2       0.43850    0.32680    0.93850   1.00
O2       0.43850    0.50320    0.89150   1.00
O2       0.50320    0.43850    0.89150   1.00
O2       0.43850    0.43850    0.82680   1.00
O2       0.32680    0.39150    0.89150   1.00
O2       0.39150    0.32680    0.89150   1.00
O2       0.39150    0.39150    0.82680   1.00
C1       0.41500    0.41500    1.02020   1.00
C1       0.41500    0.52020    0.91500   1.00
C1       0.30980    0.41500    0.91500   1.00
C1       0.52020    0.41500    0.91500   1.00
C1       0.41500    0.30980    0.91500   1.00
C1       0.41500    0.41500    0.80980   1.00
O1       0.41500    0.91500    0.41500   1.00
Zn1      0.38220    0.94780    0.44780   1.00
Zn1      0.44780    0.88220    0.44780   1.00
Zn1      0.44780    0.94780    0.38220   1.00
Zn1      0.38220    0.88220    0.38220   1.00
O2       0.39150    0.93850    0.50320   1.00
O2       0.39150    1.00320    0.43850   1.00
O2       0.32680    0.93850    0.43850   1.00
O2       0.43850    0.89150    0.50320   1.00
O2       0.50320    0.89150    0.43850   1.00
O2       0.43850    0.82680    0.43850   1.00
O2       0.43850    1.00320    0.39150   1.00
O2       0.50320    0.93850    0.39150   1.00
O2       0.43850    0.93850    0.32680   1.00
O2       0.32680    0.89150    0.39150   1.00
O2       0.39150    0.82680    0.39150   1.00
O2       0.39150    0.89150    0.32680   1.00
C1       0.41500    0.91500    0.52020   1.00
C1       0.41500    1.02020    0.41500   1.00
C1       0.30980    0.91500    0.41500   1.00
C1       0.52020    0.91500    0.41500   1.00
C1       0.41500    0.80980    0.41500   1.00
C1       0.41500    0.91500    0.30980   1.00
O1       0.91500    0.41500    0.41500   1.00
Zn1      0.88220    0.44780    0.44780   1.00
Zn1      0.94780    0.38220    0.44780   1.00
Zn1      0.94780    0.44780    0.38220   1.00
Zn1      0.88220    0.38220    0.38220   1.00
O2       0.89150    0.43850    0.50320   1.00
O2       0.89150    0.50320    0.43850   1.00
O2       0.82680    0.43850    0.43850   1.00
O2       0.93850    0.39150    0.50320   1.00
O2       1.00320    0.39150    0.43850   1.00
O2       0.93850    0.32680    0.43850   1.00
O2       0.93850    0.50320    0.39150   1.00
O2       1.00320    0.43850    0.39150   1.00
O2       0.93850    0.43850    0.32680   1.00
O2       0.82680    0.39150    0.39150   1.00
O2       0.89150    0.32680    0.39150   1.00
O2       0.89150    0.39150    0.32680   1.00
C1       0.91500    0.41500    0.52020   1.00
C1       0.91500    0.52020    0.41500   1.00
C1       0.80980    0.41500    0.41500   1.00
C1       1.02020    0.41500    0.41500   1.00
C1       0.91500    0.30980    0.41500   1.00
C1       0.91500    0.41500    0.30980   1.00
O1       0.41500    0.41500    0.41500   1.00
Zn1      0.44780    0.38220    0.38220   1.00
Zn1      0.38220    0.44780    0.38220   1.00
Zn1      0.38220    0.38220    0.44780   1.00
Zn1      0.44780    0.44780    0.44780   1.00
O2       0.43850    0.39150    0.32680   1.00
O2       0.43850    0.32680    0.39150   1.00
O2       0.50320    0.39150    0.39150   1.00
O2       0.39150    0.43850    0.32680   1.00
O2       0.32680    0.43850    0.39150   1.00
O2       0.39150    0.50320    0.39150   1.00
O2       0.39150    0.32680    0.43850   1.00
O2       0.32680    0.39150    0.43850   1.00
O2       0.39150    0.39150    0.50320   1.00
O2       0.50320    0.43850    0.43850   1.00
O2       0.43850    0.50320    0.43850   1.00
O2       0.43850    0.43850    0.50320   1.00
C1       0.41500    0.41500    0.30980   1.00
C1       0.41500    0.30980    0.41500   1.00
C1       0.52020    0.41500    0.41500   1.00
C1       0.30980    0.41500    0.41500   1.00
C1       0.41500    0.52020    0.41500   1.00
C1       0.41500    0.41500    0.52020   1.00
O1       0.91500    0.91500    0.41500   1.00
Zn1      0.94780    0.88220    0.38220   1.00
Zn1      0.88220    0.94780    0.38220   1.00
Zn1      0.88220    0.88220    0.44780   1.00
Zn1      0.94780    0.94780    0.44780   1.00
O2       0.93850    0.89150    0.32680   1.00
O2       0.93850    0.82680    0.39150   1.00
O2       1.00320    0.89150    0.39150   1.00
O2       0.89150    0.93850    0.32680   1.00
O2       0.82680    0.93850    0.39150   1.00
O2       0.89150    1.00320    0.39150   1.00
O2       0.89150    0.82680    0.43850   1.00
O2       0.82680    0.89150    0.43850   1.00
O2       0.89150    0.89150    0.50320   1.00
O2       1.00320    0.93850    0.43850   1.00
O2       0.93850    1.00320    0.43850   1.00
O2       0.93850    0.93850    0.50320   1.00
C1       0.91500    0.91500    0.30980   1.00
C1       0.91500    0.80980    0.41500   1.00
C1       1.02020    0.91500    0.41500   1.00
C1       0.80980    0.91500    0.41500   1.00
C1       0.91500    1.02020    0.41500   1.00
C1       0.91500    0.91500    0.52020   1.00
O1       0.91500    0.41500    0.91500   1.00
Zn1      0.94780    0.38220    0.88220   1.00
Zn1      0.88220    0.44780    0.88220   1.00
Zn1      0.88220    0.38220    0.94780   1.00
Zn1      0.94780    0.44780    0.94780   1.00
O2       0.93850    0.39150    0.82680   1.00
O2       0.93850    0.32680    0.89150   1.00
O2       1.00320    0.39150    0.89150   1.00
O2       0.89150    0.43850    0.82680   1.00
O2       0.82680    0.43850    0.89150   1.00
O2       0.89150    0.50320    0.89150   1.00
O2       0.89150    0.32680    0.93850   1.00
O2       0.82680    0.39150    0.93850   1.00
O2       0.89150    0.39150    1.00320   1.00
O2       1.00320    0.43850    0.93850   1.00
O2       0.93850    0.50320    0.93850   1.00
O2       0.93850    0.43850    1.00320   1.00
C1       0.91500    0.41500    0.80980   1.00
C1       0.91500    0.30980    0.91500   1.00
C1       1.02020    0.41500    0.91500   1.00
C1       0.80980    0.41500    0.91500   1.00
C1       0.91500    0.52020    0.91500   1.00
C1       0.91500    0.41500    1.02020   1.00
O1       0.41500    0.91500    0.91500   1.00
Zn1      0.44780    0.88220    0.88220   1.00
Zn1      0.38220    0.94780    0.88220   1.00
Zn1      0.38220    0.88220    0.94780   1.00
Zn1      0.44780    0.94780    0.94780   1.00
O2       0.43850    0.89150    0.82680   1.00
O2       0.43850    0.82680    0.89150   1.00
O2       0.50320    0.89150    0.89150   1.00
O2       0.39150    0.93850    0.82680   1.00
O2       0.32680    0.93850    0.89150   1.00
O2       0.39150    1.00320    0.89150   1.00
O2       0.39150    0.82680    0.93850   1.00
O2       0.32680    0.89150    0.93850   1.00
O2       0.39150    0.89150    1.00320   1.00
O2       0.50320    0.93850    0.93850   1.00
O2       0.43850    1.00320    0.93850   1.00
O2       0.43850    0.93850    1.00320   1.00
C1       0.41500    0.91500    0.80980   1.00
C1       0.41500    0.80980    0.91500   1.00
C1       0.52020    0.91500    0.91500   1.00
C1       0.30980    0.91500    0.91500   1.00
C1       0.41500    1.02020    0.91500   1.00
C1       0.41500    0.91500    1.02020   1.00
C4       0.75012    0.75015    0.97915   1.00
C4       0.74988    0.74985    1.02085   1.00
C3a      0.74942    0.78573    0.95746   1.00
C3       0.78430    0.75682    1.04232   1.00
C3       0.75120    0.71505    0.95768   1.00
C3a      0.71508    0.74241    1.04254   1.00
C2       0.75007    0.74995    0.89488   1.00
C2       0.75006    0.74995    1.10512   1.00
C3       0.74932    0.78505    0.91595   1.00
C3       0.78432    0.75697    1.08363   1.00
C3       0.75105    0.71499    0.91637   1.00
C3       0.71572    0.74265    1.08405   1.00
C5       0.74813    0.82494    0.97772   1.00
H1       0.81129    0.76257    1.02691   1.00
H1       0.74858    0.81216    0.89979   1.00
H1       0.81131    0.76267    1.09901   1.00
H1       0.75167    0.68742    0.90099   1.00
H1       0.68916    0.73718    1.10021   1.00
C5       0.67661    0.73470    1.02228   1.00
H1       0.75176    0.68746    0.97309   1.00
H2       0.65209    0.74080    1.04256   1.00
H2       0.67284    0.75501    0.99731   1.00
H2       0.73659    0.84743    0.95744   1.00
H2       0.72750    0.82397    1.00269   1.00
N1       0.67434    0.69432    1.00857   1.00
C6       0.67308    0.66227    1.03073   1.00
C6       0.67201    0.68251    0.97154   1.00
C6       0.67044    0.62954    1.00759   1.00
C6       0.66975    0.64241    0.96995   1.00
H3       0.67435    0.66248    1.06197   1.00
H3       0.67226    0.70183    0.94700   1.00
H3       0.66913    0.59963    1.01713   1.00
H3       0.66785    0.62455    0.94425   1.00
N1       0.78692    0.83638    0.99143   1.00
C6       0.79789    0.84134    1.02846   1.00
C6       0.81784    0.84492    0.96927   1.00
C6       0.83641    0.85270    1.03005   1.00
C6       0.84910    0.85497    0.99241   1.00
H3       0.77914    0.83669    1.05300   1.00
H3       0.81793    0.84364    0.93803   1.00
H3       0.85337    0.85864    1.05575   1.00
H3       0.87792    0.86309    0.98287   1.00
C4       0.75015    0.97915    0.75012   1.00
C4       0.74985    1.02085    0.74988   1.00
C3a      0.78573    0.95746    0.74942   1.00
C3       0.75682    1.04232    0.78430   1.00
C3       0.71505    0.95768    0.75120   1.00
C3a      0.74241    1.04254    0.71508   1.00
C2       0.74995    0.89488    0.75007   1.00
C2       0.74995    1.10512    0.75006   1.00
C3       0.78505    0.91595    0.74932   1.00
C3       0.75697    1.08363    0.78432   1.00
C3       0.71499    0.91637    0.75105   1.00
C3       0.74265    1.08405    0.71572   1.00
C5       0.82494    0.97772    0.74813   1.00
H1       0.76257    1.02691    0.81129   1.00
H1       0.81216    0.89979    0.74858   1.00
H1       0.76267    1.09901    0.81131   1.00
H1       0.68742    0.90099    0.75167   1.00
H1       0.73718    1.10021    0.68916   1.00
C5       0.73470    1.02228    0.67661   1.00
H1       0.68746    0.97309    0.75176   1.00
H2       0.74080    1.04256    0.65209   1.00
H2       0.75501    0.99731    0.67284   1.00
H2       0.84743    0.95744    0.73659   1.00
H2       0.82397    1.00269    0.72750   1.00
N1       0.69432    1.00857    0.67434   1.00
C6       0.66227    1.03073    0.67308   1.00
C6       0.68251    0.97154    0.67201   1.00
C6       0.62954    1.00759    0.67044   1.00
C6       0.64241    0.96995    0.66975   1.00
H3       0.66248    1.06197    0.67435   1.00
H3       0.70183    0.94700    0.67226   1.00
H3       0.59963    1.01713    0.66913   1.00
H3       0.62455    0.94425    0.66785   1.00
N1       0.83638    0.99143    0.78692   1.00
C6       0.84134    1.02846    0.79789   1.00
C6       0.84492    0.96927    0.81784   1.00
C6       0.85270    1.03005    0.83641   1.00
C6       0.85497    0.99241    0.84910   1.00
H3       0.83669    1.05300    0.77914   1.00
H3       0.84364    0.93803    0.81793   1.00
H3       0.85864    1.05575    0.85337   1.00
H3       0.86309    0.98287    0.87792   1.00
C4       0.52085    0.75012    0.74985   1.00
C4       0.47915    0.74988    0.75015   1.00
C3a      0.54254    0.74942    0.71427   1.00
C3       0.45768    0.78430    0.74318   1.00
C3       0.54232    0.75120    0.78495   1.00
C3a      0.45746    0.71508    0.75759   1.00
C2       0.60512    0.75007    0.75005   1.00
C2       0.39488    0.75006    0.75005   1.00
C3       0.58405    0.74932    0.71495   1.00
C3       0.41637    0.78432    0.74303   1.00
C3       0.58363    0.75105    0.78501   1.00
C3       0.41595    0.71572    0.75735   1.00
C5       0.52228    0.74813    0.67506   1.00
H1       0.47309    0.81129    0.73743   1.00
H1       0.60021    0.74858    0.68784   1.00
H1       0.40099    0.81131    0.73733   1.00
H1       0.59901    0.75167    0.81258   1.00
H1       0.39979    0.68916    0.76282   1.00
C5       0.47772    0.67661    0.76530   1.00
H1       0.52691    0.75176    0.81254   1.00
H2       0.45744    0.65209    0.75920   1.00
H2       0.50269    0.67284    0.74499   1.00
H2       0.54256    0.73659    0.65257   1.00
H2       0.49731    0.72750    0.67603   1.00
N1       0.49143    0.67434    0.80568   1.00
C6       0.46927    0.67308    0.83773   1.00
C6       0.52846    0.67201    0.81749   1.00
C6       0.49241    0.67044    0.87046   1.00
C6       0.53005    0.66975    0.85759   1.00
H3       0.43803    0.67435    0.83752   1.00
H3       0.55300    0.67226    0.79817   1.00
H3       0.48287    0.66913    0.90037   1.00
H3       0.55575    0.66785    0.87545   1.00
N1       0.50857    0.78692    0.66362   1.00
C6       0.47154    0.79789    0.65866   1.00
C6       0.53073    0.81784    0.65508   1.00
C6       0.46995    0.83641    0.64730   1.00
C6       0.50759    0.84910    0.64503   1.00
H3       0.44700    0.77914    0.66331   1.00
H3       0.56197    0.81793    0.65636   1.00
H3       0.44425    0.85337    0.64136   1.00
H3       0.51713    0.87792    0.63691   1.00
C4       0.97915    0.75012    0.75015   1.00
C4       1.02085    0.74988    0.74985   1.00
C3a      0.95746    0.74942    0.78573   1.00
C3       1.04232    0.78430    0.75682   1.00
C3       0.95768    0.75120    0.71505   1.00
C3a      1.04254    0.71508    0.74241   1.00
C2       0.89488    0.75007    0.74995   1.00
C2       1.10512    0.75006    0.74995   1.00
C3       0.91595    0.74932    0.78505   1.00
C3       1.08363    0.78432    0.75697   1.00
C3       0.91637    0.75105    0.71499   1.00
C3       1.08405    0.71572    0.74265   1.00
C5       0.97772    0.74813    0.82494   1.00
H1       1.02691    0.81129    0.76257   1.00
H1       0.89979    0.74858    0.81216   1.00
H1       1.09901    0.81131    0.76267   1.00
H1       0.90099    0.75167    0.68742   1.00
H1       1.10021    0.68916    0.73718   1.00
C5       1.02228    0.67661    0.73470   1.00
H1       0.97309    0.75176    0.68746   1.00
H2       1.04256    0.65209    0.74080   1.00
H2       0.99731    0.67284    0.75501   1.00
H2       0.95744    0.73659    0.84743   1.00
H2       1.00269    0.72750    0.82397   1.00
N1       1.00857    0.67434    0.69432   1.00
C6       1.03073    0.67308    0.66227   1.00
C6       0.97154    0.67201    0.68251   1.00
C6       1.00759    0.67044    0.62954   1.00
C6       0.96995    0.66975    0.64241   1.00
H3       1.06197    0.67435    0.66248   1.00
H3       0.94700    0.67226    0.70183   1.00
H3       1.01713    0.66913    0.59963   1.00
H3       0.94425    0.66785    0.62455   1.00
N1       0.99143    0.78692    0.83638   1.00
C6       1.02846    0.79789    0.84134   1.00
C6       0.96927    0.81784    0.84492   1.00
C6       1.03005    0.83641    0.85270   1.00
C6       0.99241    0.84910    0.85497   1.00
H3       1.05300    0.77914    0.83669   1.00
H3       0.93803    0.81793    0.84364   1.00
H3       1.05575    0.85337    0.85864   1.00
H3       0.98287    0.87792    0.86309   1.00
C4       0.74985    0.52085    0.75012   1.00
C4       0.75015    0.47915    0.74988   1.00
C3a      0.71427    0.54254    0.74942   1.00
C3       0.74318    0.45768    0.78430   1.00
C3       0.78495    0.54232    0.75120   1.00
C3a      0.75759    0.45746    0.71508   1.00
C2       0.75005    0.60512    0.75007   1.00
C2       0.75005    0.39488    0.75006   1.00
C3       0.71495    0.58405    0.74932   1.00
C3       0.74303    0.41637    0.78432   1.00
C3       0.78501    0.58363    0.75105   1.00
C3       0.75735    0.41595    0.71572   1.00
C5       0.67506    0.52228    0.74813   1.00
H1       0.73743    0.47309    0.81129   1.00
H1       0.68784    0.60021    0.74858   1.00
H1       0.73733    0.40099    0.81131   1.00
H1       0.81258    0.59901    0.75167   1.00
H1       0.76282    0.39979    0.68916   1.00
C5       0.76530    0.47772    0.67661   1.00
H1       0.81254    0.52691    0.75176   1.00
H2       0.75920    0.45744    0.65209   1.00
H2       0.74499    0.50269    0.67284   1.00
H2       0.65257    0.54256    0.73659   1.00
H2       0.67603    0.49731    0.72750   1.00
N1       0.80568    0.49143    0.67434   1.00
C6       0.83773    0.46927    0.67308   1.00
C6       0.81749    0.52846    0.67201   1.00
C6       0.87046    0.49241    0.67044   1.00
C6       0.85759    0.53005    0.66975   1.00
H3       0.83752    0.43803    0.67435   1.00
H3       0.79817    0.55300    0.67226   1.00
H3       0.90037    0.48287    0.66913   1.00
H3       0.87545    0.55575    0.66785   1.00
N1       0.66362    0.50857    0.78692   1.00
C6       0.65866    0.47154    0.79789   1.00
C6       0.65508    0.53073    0.81784   1.00
C6       0.64730    0.46995    0.83641   1.00
C6       0.64503    0.50759    0.84910   1.00
H3       0.66331    0.44700    0.77914   1.00
H3       0.65636    0.56197    0.81793   1.00
H3       0.64136    0.44425    0.85337   1.00
H3       0.63691    0.51713    0.87792   1.00
C4       0.75012    0.74985    0.52085   1.00
C4       0.74988    0.75015    0.47915   1.00
C3a      0.74942    0.71427    0.54254   1.00
C3       0.78430    0.74318    0.45768   1.00
C3       0.75120    0.78495    0.54232   1.00
C3a      0.71508    0.75759    0.45746   1.00
C2       0.75007    0.75005    0.60512   1.00
C2       0.75006    0.75005    0.39488   1.00
C3       0.74932    0.71495    0.58405   1.00
C3       0.78432    0.74303    0.41637   1.00
C3       0.75105    0.78501    0.58363   1.00
C3       0.71572    0.75735    0.41595   1.00
C5       0.74813    0.67506    0.52228   1.00
H1       0.81129    0.73743    0.47309   1.00
H1       0.74858    0.68784    0.60021   1.00
H1       0.81131    0.73733    0.40099   1.00
H1       0.75167    0.81258    0.59901   1.00
H1       0.68916    0.76282    0.39979   1.00
C5       0.67661    0.76530    0.47772   1.00
H1       0.75176    0.81254    0.52691   1.00
H2       0.65209    0.75920    0.45744   1.00
H2       0.67284    0.74499    0.50269   1.00
H2       0.73659    0.65257    0.54256   1.00
H2       0.72750    0.67603    0.49731   1.00
N1       0.67434    0.80568    0.49143   1.00
C6       0.67308    0.83773    0.46927   1.00
C6       0.67201    0.81749    0.52846   1.00
C6       0.67044    0.87046    0.49241   1.00
C6       0.66975    0.85759    0.53005   1.00
H3       0.67435    0.83752    0.43803   1.00
H3       0.67226    0.79817    0.55300   1.00
H3       0.66913    0.90037    0.48287   1.00
H3       0.66785    0.87545    0.55575   1.00
N1       0.78692    0.66362    0.50857   1.00
C6       0.79789    0.65866    0.47154   1.00
C6       0.81784    0.65508    0.53073   1.00
C6       0.83641    0.64730    0.46995   1.00
C6       0.84910    0.64503    0.50759   1.00
H3       0.77914    0.66331    0.44700   1.00
H3       0.81793    0.65636    0.56197   1.00
H3       0.85337    0.64136    0.44425   1.00
H3       0.87792    0.63691    0.51713   1.00
C4       0.25012    0.25015    0.97915   1.00
C4       0.24988    0.24985    1.02085   1.00
C3a      0.24942    0.28573    0.95746   1.00
C3       0.28430    0.25682    1.04232   1.00
C3       0.25120    0.21505    0.95768   1.00
C3a      0.21508    0.24241    1.04254   1.00
C2       0.25007    0.24995    0.89488   1.00
C2       0.25006    0.24995    1.10512   1.00
C3       0.24932    0.28505    0.91595   1.00
C3       0.28432    0.25697    1.08363   1.00
C3       0.25105    0.21499    0.91637   1.00
C3       0.21572    0.24265    1.08405   1.00
C5       0.24813    0.32494    0.97772   1.00
H1       0.31129    0.26257    1.02691   1.00
H1       0.24858    0.31216    0.89979   1.00
H1       0.31131    0.26267    1.09901   1.00
H1       0.25167    0.18742    0.90099   1.00
H1       0.18916    0.23718    1.10021   1.00
C5       0.17661    0.23470    1.02228   1.00
H1       0.25176    0.18746    0.97309   1.00
H2       0.15209    0.24080    1.04256   1.00
H2       0.17284    0.25501    0.99731   1.00
H2       0.23659    0.34743    0.95744   1.00
H2       0.22750    0.32397    1.00269   1.00
N1       0.17434    0.19432    1.00857   1.00
C6       0.17308    0.16227    1.03073   1.00
C6       0.17201    0.18251    0.97154   1.00
C6       0.17044    0.12954    1.00759   1.00
C6       0.16975    0.14241    0.96995   1.00
H3       0.17435    0.16248    1.06197   1.00
H3       0.17226    0.20183    0.94700   1.00
H3       0.16913    0.09963    1.01713   1.00
H3       0.16785    0.12455    0.94425   1.00
N1       0.28692    0.33638    0.99143   1.00
C6       0.29789    0.34134    1.02846   1.00
C6       0.31784    0.34492    0.96927   1.00
C6       0.33641    0.35270    1.03005   1.00
C6       0.34910    0.35497    0.99241   1.00
H3       0.27914    0.33669    1.05300   1.00
H3       0.31793    0.34364    0.93803   1.00
H3       0.35337    0.35864    1.05575   1.00
H3       0.37792    0.36309    0.98287   1.00
C4       0.25015    0.47915    0.75012   1.00
C4       0.24985    0.52085    0.74988   1.00
C3a      0.28573    0.45746    0.74942   1.00
C3       0.25682    0.54232    0.78430   1.00
C3       0.21505    0.45768    0.75120   1.00
C3a      0.24241    0.54254    0.71508   1.00
C2       0.24995    0.39488    0.75007   1.00
C2       0.24995    0.60512    0.75006   1.00
C3       0.28505    0.41595    0.74932   1.00
C3       0.25697    0.58363    0.78432   1.00
C3       0.21499    0.41637    0.75105   1.00
C3       0.24265    0.58405    0.71572   1.00
C5       0.32494    0.47772    0.74813   1.00
H1       0.26257    0.52691    0.81129   1.00
H1       0.31216    0.39979    0.74858   1.00
H1       0.26267    0.59901    0.81131   1.00
H1       0.18742    0.40099    0.75167   1.00
H1       0.23718    0.60021    0.68916   1.00
C5       0.23470    0.52228    0.67661   1.00
H1       0.18746    0.47309    0.75176   1.00
H2       0.24080    0.54256    0.65209   1.00
H2       0.25501    0.49731    0.67284   1.00
H2       0.34743    0.45744    0.73659   1.00
H2       0.32397    0.50269    0.72750   1.00
N1       0.19432    0.50857    0.67434   1.00
C6       0.16227    0.53073    0.67308   1.00
C6       0.18251    0.47154    0.67201   1.00
C6       0.12954    0.50759    0.67044   1.00
C6       0.14241    0.46995    0.66975   1.00
H3       0.16248    0.56197    0.67435   1.00
H3       0.20183    0.44700    0.67226   1.00
H3       0.09963    0.51713    0.66913   1.00
H3       0.12455    0.44425    0.66785   1.00
N1       0.33638    0.49143    0.78692   1.00
C6       0.34134    0.52846    0.79789   1.00
C6       0.34492    0.46927    0.81784   1.00
C6       0.35270    0.53005    0.83641   1.00
C6       0.35497    0.49241    0.84910   1.00
H3       0.33669    0.55300    0.77914   1.00
H3       0.34364    0.43803    0.81793   1.00
H3       0.35864    0.55575    0.85337   1.00
H3       0.36309    0.48287    0.87792   1.00
C4       0.02085    0.25012    0.74985   1.00
C4       -0.02085   0.24988    0.75015   1.00
C3a      0.04254    0.24942    0.71427   1.00
C3       -0.04232   0.28430    0.74318   1.00
C3       0.04232    0.25120    0.78495   1.00
C3a      -0.04254   0.21508    0.75759   1.00
C2       0.10512    0.25007    0.75005   1.00
C2       -0.10512   0.25006    0.75005   1.00
C3       0.08405    0.24932    0.71495   1.00
C3       -0.08363   0.28432    0.74303   1.00
C3       0.08363    0.25105    0.78501   1.00
C3       -0.08405   0.21572    0.75735   1.00
C5       0.02228    0.24813    0.67506   1.00
H1       -0.02691   0.31129    0.73743   1.00
H1       0.10021    0.24858    0.68784   1.00
H1       -0.09901   0.31131    0.73733   1.00
H1       0.09901    0.25167    0.81258   1.00
H1       -0.10021   0.18916    0.76282   1.00
C5       -0.02228   0.17661    0.76530   1.00
H1       0.02691    0.25176    0.81254   1.00
H2       -0.04256   0.15209    0.75920   1.00
H2       0.00269    0.17284    0.74499   1.00
H2       0.04256    0.23659    0.65257   1.00
H2       -0.00269   0.22750    0.67603   1.00
N1       -0.00857   0.17434    0.80568   1.00
C6       -0.03073   0.17308    0.83773   1.00
C6       0.02846    0.17201    0.81749   1.00
C6       -0.00759   0.17044    0.87046   1.00
C6       0.03005    0.16975    0.85759   1.00
H3       -0.06197   0.17435    0.83752   1.00
H3       0.05300    0.17226    0.79817   1.00
H3       -0.01713   0.16913    0.90037   1.00
H3       0.05575    0.16785    0.87545   1.00
N1       0.00857    0.28692    0.66362   1.00
C6       -0.02846   0.29789    0.65866   1.00
C6       0.03073    0.31784    0.65508   1.00
C6       -0.03005   0.33641    0.64730   1.00
C6       0.00759    0.34910    0.64503   1.00
H3       -0.05300   0.27914    0.66331   1.00
H3       0.06197    0.31793    0.65636   1.00
H3       -0.05575   0.35337    0.64136   1.00
H3       0.01713    0.37792    0.63691   1.00
C4       0.47915    0.25012    0.75015   1.00
C4       0.52085    0.24988    0.74985   1.00
C3a      0.45746    0.24942    0.78573   1.00
C3       0.54232    0.28430    0.75682   1.00
C3       0.45768    0.25120    0.71505   1.00
C3a      0.54254    0.21508    0.74241   1.00
C2       0.39488    0.25007    0.74995   1.00
C2       0.60512    0.25006    0.74995   1.00
C3       0.41595    0.24932    0.78505   1.00
C3       0.58363    0.28432    0.75697   1.00
C3       0.41637    0.25105    0.71499   1.00
C3       0.58405    0.21572    0.74265   1.00
C5       0.47772    0.24813    0.82494   1.00
H1       0.52691    0.31129    0.76257   1.00
H1       0.39979    0.24858    0.81216   1.00
H1       0.59901    0.31131    0.76267   1.00
H1       0.40099    0.25167    0.68742   1.00
H1       0.60021    0.18916    0.73718   1.00
C5       0.52228    0.17661    0.73470   1.00
H1       0.47309    0.25176    0.68746   1.00
H2       0.54256    0.15209    0.74080   1.00
H2       0.49731    0.17284    0.75501   1.00
H2       0.45744    0.23659    0.84743   1.00
H2       0.50269    0.22750    0.82397   1.00
N1       0.50857    0.17434    0.69432   1.00
C6       0.53073    0.17308    0.66227   1.00
C6       0.47154    0.17201    0.68251   1.00
C6       0.50759    0.17044    0.62954   1.00
C6       0.46995    0.16975    0.64241   1.00
H3       0.56197    0.17435    0.66248   1.00
H3       0.44700    0.17226    0.70183   1.00
H3       0.51713    0.16913    0.59963   1.00
H3       0.44425    0.16785    0.62455   1.00
N1       0.49143    0.28692    0.83638   1.00
C6       0.52846    0.29789    0.84134   1.00
C6       0.46927    0.31784    0.84492   1.00
C6       0.53005    0.33641    0.85270   1.00
C6       0.49241    0.34910    0.85497   1.00
H3       0.55300    0.27914    0.83669   1.00
H3       0.43803    0.31793    0.84364   1.00
H3       0.55575    0.35337    0.85864   1.00
H3       0.48287    0.37792    0.86309   1.00
C4       0.24985    0.02085    0.75012   1.00
C4       0.25015    -0.02085   0.74988   1.00
C3a      0.21427    0.04254    0.74942   1.00
C3       0.24318    -0.04232   0.78430   1.00
C3       0.28495    0.04232    0.75120   1.00
C3a      0.25759    -0.04254   0.71508   1.00
C2       0.25005    0.10512    0.75007   1.00
C2       0.25005    -0.10512   0.75006   1.00
C3       0.21495    0.08405    0.74932   1.00
C3       0.24303    -0.08363   0.78432   1.00
C3       0.28501    0.08363    0.75105   1.00
C3       0.25735    -0.08405   0.71572   1.00
C5       0.17506    0.02228    0.74813   1.00
H1       0.23743    -0.02691   0.81129   1.00
H1       0.18784    0.10021    0.74858   1.00
H1       0.23733    -0.09901   0.81131   1.00
H1       0.31258    0.09901    0.75167   1.00
H1       0.26282    -0.10021   0.68916   1.00
C5       0.26530    -0.02228   0.67661   1.00
H1       0.31254    0.02691    0.75176   1.00
H2       0.25920    -0.04256   0.65209   1.00
H2       0.24499    0.00269    0.67284   1.00
H2       0.15257    0.04256    0.73659   1.00
H2       0.17603    -0.00269   0.72750   1.00
N1       0.30568    -0.00857   0.67434   1.00
C6       0.33773    -0.03073   0.67308   1.00
C6       0.31749    0.02846    0.67201   1.00
C6       0.37046    -0.00759   0.67044   1.00
C6       0.35759    0.03005    0.66975   1.00
H3       0.33752    -0.06197   0.67435   1.00
H3       0.29817    0.05300    0.67226   1.00
H3       0.40037    -0.01713   0.66913   1.00
H3       0.37545    0.05575    0.66785   1.00
N1       0.16362    0.00857    0.78692   1.00
C6       0.15866    -0.02846   0.79789   1.00
C6       0.15508    0.03073    0.81784   1.00
C6       0.14730    -0.03005   0.83641   1.00
C6       0.14503    0.00759    0.84910   1.00
H3       0.16331    -0.05300   0.77914   1.00
H3       0.15636    0.06197    0.81793   1.00
H3       0.14136    -0.05575   0.85337   1.00
H3       0.13691    0.01713    0.87792   1.00
C4       0.25012    0.24985    0.52085   1.00
C4       0.24988    0.25015    0.47915   1.00
C3a      0.24942    0.21427    0.54254   1.00
C3       0.28430    0.24318    0.45768   1.00
C3       0.25120    0.28495    0.54232   1.00
C3a      0.21508    0.25759    0.45746   1.00
C2       0.25007    0.25005    0.60512   1.00
C2       0.25006    0.25005    0.39488   1.00
C3       0.24932    0.21495    0.58405   1.00
C3       0.28432    0.24303    0.41637   1.00
C3       0.25105    0.28501    0.58363   1.00
C3       0.21572    0.25735    0.41595   1.00
C5       0.24813    0.17506    0.52228   1.00
H1       0.31129    0.23743    0.47309   1.00
H1       0.24858    0.18784    0.60021   1.00
H1       0.31131    0.23733    0.40099   1.00
H1       0.25167    0.31258    0.59901   1.00
H1       0.18916    0.26282    0.39979   1.00
C5       0.17661    0.26530    0.47772   1.00
H1       0.25176    0.31254    0.52691   1.00
H2       0.15209    0.25920    0.45744   1.00
H2       0.17284    0.24499    0.50269   1.00
H2       0.23659    0.15257    0.54256   1.00
H2       0.22750    0.17603    0.49731   1.00
N1       0.17434    0.30568    0.49143   1.00
C6       0.17308    0.33773    0.46927   1.00
C6       0.17201    0.31749    0.52846   1.00
C6       0.17044    0.37046    0.49241   1.00
C6       0.16975    0.35759    0.53005   1.00
H3       0.17435    0.33752    0.43803   1.00
H3       0.17226    0.29817    0.55300   1.00
H3       0.16913    0.40037    0.48287   1.00
H3       0.16785    0.37545    0.55575   1.00
N1       0.28692    0.16362    0.50857   1.00
C6       0.29789    0.15866    0.47154   1.00
C6       0.31784    0.15508    0.53073   1.00
C6       0.33641    0.14730    0.46995   1.00
C6       0.34910    0.14503    0.50759   1.00
H3       0.27914    0.16331    0.44700   1.00
H3       0.31793    0.15636    0.56197   1.00
H3       0.35337    0.14136    0.44425   1.00
H3       0.37792    0.13691    0.51713   1.00
C4       0.25012    0.75015    0.47915   1.00
C4       0.24988    0.74985    0.52085   1.00
C3a      0.24942    0.78573    0.45746   1.00
C3       0.28430    0.75682    0.54232   1.00
C3       0.25120    0.71505    0.45768   1.00
C3a      0.21508    0.74241    0.54254   1.00
C2       0.25007    0.74995    0.39488   1.00
C2       0.25006    0.74995    0.60512   1.00
C3       0.24932    0.78505    0.41595   1.00
C3       0.28432    0.75697    0.58363   1.00
C3       0.25105    0.71499    0.41637   1.00
C3       0.21572    0.74265    0.58405   1.00
C5       0.24813    0.82494    0.47772   1.00
H1       0.31129    0.76257    0.52691   1.00
H1       0.24858    0.81216    0.39979   1.00
H1       0.31131    0.76267    0.59901   1.00
H1       0.25167    0.68742    0.40099   1.00
H1       0.18916    0.73718    0.60021   1.00
C5       0.17661    0.73470    0.52228   1.00
H1       0.25176    0.68746    0.47309   1.00
H2       0.15209    0.74080    0.54256   1.00
H2       0.17284    0.75501    0.49731   1.00
H2       0.23659    0.84743    0.45744   1.00
H2       0.22750    0.82397    0.50269   1.00
N1       0.17434    0.69432    0.50857   1.00
C6       0.17308    0.66227    0.53073   1.00
C6       0.17201    0.68251    0.47154   1.00
C6       0.17044    0.62954    0.50759   1.00
C6       0.16975    0.64241    0.46995   1.00
H3       0.17435    0.66248    0.56197   1.00
H3       0.17226    0.70183    0.44700   1.00
H3       0.16913    0.59963    0.51713   1.00
H3       0.16785    0.62455    0.44425   1.00
N1       0.28692    0.83638    0.49143   1.00
C6       0.29789    0.84134    0.52846   1.00
C6       0.31784    0.84492    0.46927   1.00
C6       0.33641    0.85270    0.53005   1.00
C6       0.34910    0.85497    0.49241   1.00
H3       0.27914    0.83669    0.55300   1.00
H3       0.31793    0.84364    0.43803   1.00
H3       0.35337    0.85864    0.55575   1.00
H3       0.37792    0.86309    0.48287   1.00
C4       0.25015    0.97915    0.25012   1.00
C4       0.24985    1.02085    0.24988   1.00
C3a      0.28573    0.95746    0.24942   1.00
C3       0.25682    1.04232    0.28430   1.00
C3       0.21505    0.95768    0.25120   1.00
C3a      0.24241    1.04254    0.21508   1.00
C2       0.24995    0.89488    0.25007   1.00
C2       0.24995    1.10512    0.25006   1.00
C3       0.28505    0.91595    0.24932   1.00
C3       0.25697    1.08363    0.28432   1.00
C3       0.21499    0.91637    0.25105   1.00
C3       0.24265    1.08405    0.21572   1.00
C5       0.32494    0.97772    0.24813   1.00
H1       0.26257    1.02691    0.31129   1.00
H1       0.31216    0.89979    0.24858   1.00
H1       0.26267    1.09901    0.31131   1.00
H1       0.18742    0.90099    0.25167   1.00
H1       0.23718    1.10021    0.18916   1.00
C5       0.23470    1.02228    0.17661   1.00
H1       0.18746    0.97309    0.25176   1.00
H2       0.24080    1.04256    0.15209   1.00
H2       0.25501    0.99731    0.17284   1.00
H2       0.34743    0.95744    0.23659   1.00
H2       0.32397    1.00269    0.22750   1.00
N1       0.19432    1.00857    0.17434   1.00
C6       0.16227    1.03073    0.17308   1.00
C6       0.18251    0.97154    0.17201   1.00
C6       0.12954    1.00759    0.17044   1.00
C6       0.14241    0.96995    0.16975   1.00
H3       0.16248    1.06197    0.17435   1.00
H3       0.20183    0.94700    0.17226   1.00
H3       0.09963    1.01713    0.16913   1.00
H3       0.12455    0.94425    0.16785   1.00
N1       0.33638    0.99143    0.28692   1.00
C6       0.34134    1.02846    0.29789   1.00
C6       0.34492    0.96927    0.31784   1.00
C6       0.35270    1.03005    0.33641   1.00
C6       0.35497    0.99241    0.34910   1.00
H3       0.33669    1.05300    0.27914   1.00
H3       0.34364    0.93803    0.31793   1.00
H3       0.35864    1.05575    0.35337   1.00
H3       0.36309    0.98287    0.37792   1.00
C4       0.02085    0.75012    0.24985   1.00
C4       -0.02085   0.74988    0.25015   1.00
C3a      0.04254    0.74942    0.21427   1.00
C3       -0.04232   0.78430    0.24318   1.00
C3       0.04232    0.75120    0.28495   1.00
C3a      -0.04254   0.71508    0.25759   1.00
C2       0.10512    0.75007    0.25005   1.00
C2       -0.10512   0.75006    0.25005   1.00
C3       0.08405    0.74932    0.21495   1.00
C3       -0.08363   0.78432    0.24303   1.00
C3       0.08363    0.75105    0.28501   1.00
C3       -0.08405   0.71572    0.25735   1.00
C5       0.02228    0.74813    0.17506   1.00
H1       -0.02691   0.81129    0.23743   1.00
H1       0.10021    0.74858    0.18784   1.00
H1       -0.09901   0.81131    0.23733   1.00
H1       0.09901    0.75167    0.31258   1.00
H1       -0.10021   0.68916    0.26282   1.00
C5       -0.02228   0.67661    0.26530   1.00
H1       0.02691    0.75176    0.31254   1.00
H2       -0.04256   0.65209    0.25920   1.00
H2       0.00269    0.67284    0.24499   1.00
H2       0.04256    0.73659    0.15257   1.00
H2       -0.00269   0.72750    0.17603   1.00
N1       -0.00857   0.67434    0.30568   1.00
C6       -0.03073   0.67308    0.33773   1.00
C6       0.02846    0.67201    0.31749   1.00
C6       -0.00759   0.67044    0.37046   1.00
C6       0.03005    0.66975    0.35759   1.00
H3       -0.06197   0.67435    0.33752   1.00
H3       0.05300    0.67226    0.29817   1.00
H3       -0.01713   0.66913    0.40037   1.00
H3       0.05575    0.66785    0.37545   1.00
N1       0.00857    0.78692    0.16362   1.00
C6       -0.02846   0.79789    0.15866   1.00
C6       0.03073    0.81784    0.15508   1.00
C6       -0.03005   0.83641    0.14730   1.00
C6       0.00759    0.84910    0.14503   1.00
H3       -0.05300   0.77914    0.16331   1.00
H3       0.06197    0.81793    0.15636   1.00
H3       -0.05575   0.85337    0.14136   1.00
H3       0.01713    0.87792    0.13691   1.00
C4       0.47915    0.75012    0.25015   1.00
C4       0.52085    0.74988    0.24985   1.00
C3a      0.45746    0.74942    0.28573   1.00
C3       0.54232    0.78430    0.25682   1.00
C3       0.45768    0.75120    0.21505   1.00
C3a      0.54254    0.71508    0.24241   1.00
C2       0.39488    0.75007    0.24995   1.00
C2       0.60512    0.75006    0.24995   1.00
C3       0.41595    0.74932    0.28505   1.00
C3       0.58363    0.78432    0.25697   1.00
C3       0.41637    0.75105    0.21499   1.00
C3       0.58405    0.71572    0.24265   1.00
C5       0.47772    0.74813    0.32494   1.00
H1       0.52691    0.81129    0.26257   1.00
H1       0.39979    0.74858    0.31216   1.00
H1       0.59901    0.81131    0.26267   1.00
H1       0.40099    0.75167    0.18742   1.00
H1       0.60021    0.68916    0.23718   1.00
C5       0.52228    0.67661    0.23470   1.00
H1       0.47309    0.75176    0.18746   1.00
H2       0.54256    0.65209    0.24080   1.00
H2       0.49731    0.67284    0.25501   1.00
H2       0.45744    0.73659    0.34743   1.00
H2       0.50269    0.72750    0.32397   1.00
N1       0.50857    0.67434    0.19432   1.00
C6       0.53073    0.67308    0.16227   1.00
C6       0.47154    0.67201    0.18251   1.00
C6       0.50759    0.67044    0.12954   1.00
C6       0.46995    0.66975    0.14241   1.00
H3       0.56197    0.67435    0.16248   1.00
H3       0.44700    0.67226    0.20183   1.00
H3       0.51713    0.66913    0.09963   1.00
H3       0.44425    0.66785    0.12455   1.00
N1       0.49143    0.78692    0.33638   1.00
C6       0.52846    0.79789    0.34134   1.00
C6       0.46927    0.81784    0.34492   1.00
C6       0.53005    0.83641    0.35270   1.00
C6       0.49241    0.84910    0.35497   1.00
H3       0.55300    0.77914    0.33669   1.00
H3       0.43803    0.81793    0.34364   1.00
H3       0.55575    0.85337    0.35864   1.00
H3       0.48287    0.87792    0.36309   1.00
C4       0.24985    0.52085    0.25012   1.00
C4       0.25015    0.47915    0.24988   1.00
C3a      0.21427    0.54254    0.24942   1.00
C3       0.24318    0.45768    0.28430   1.00
C3       0.28495    0.54232    0.25120   1.00
C3a      0.25759    0.45746    0.21508   1.00
C2       0.25005    0.60512    0.25007   1.00
C2       0.25005    0.39488    0.25006   1.00
C3       0.21495    0.58405    0.24932   1.00
C3       0.24303    0.41637    0.28432   1.00
C3       0.28501    0.58363    0.25105   1.00
C3       0.25735    0.41595    0.21572   1.00
C5       0.17506    0.52228    0.24813   1.00
H1       0.23743    0.47309    0.31129   1.00
H1       0.18784    0.60021    0.24858   1.00
H1       0.23733    0.40099    0.31131   1.00
H1       0.31258    0.59901    0.25167   1.00
H1       0.26282    0.39979    0.18916   1.00
C5       0.26530    0.47772    0.17661   1.00
H1       0.31254    0.52691    0.25176   1.00
H2       0.25920    0.45744    0.15209   1.00
H2       0.24499    0.50269    0.17284   1.00
H2       0.15257    0.54256    0.23659   1.00
H2       0.17603    0.49731    0.22750   1.00
N1       0.30568    0.49143    0.17434   1.00
C6       0.33773    0.46927    0.17308   1.00
C6       0.31749    0.52846    0.17201   1.00
C6       0.37046    0.49241    0.17044   1.00
C6       0.35759    0.53005    0.16975   1.00
H3       0.33752    0.43803    0.17435   1.00
H3       0.29817    0.55300    0.17226   1.00
H3       0.40037    0.48287    0.16913   1.00
H3       0.37545    0.55575    0.16785   1.00
N1       0.16362    0.50857    0.28692   1.00
C6       0.15866    0.47154    0.29789   1.00
C6       0.15508    0.53073    0.31784   1.00
C6       0.14730    0.46995    0.33641   1.00
C6       0.14503    0.50759    0.34910   1.00
H3       0.16331    0.44700    0.27914   1.00
H3       0.15636    0.56197    0.31793   1.00
H3       0.14136    0.44425    0.35337   1.00
H3       0.13691    0.51713    0.37792   1.00
C4       0.25012    0.74985    0.02085   1.00
C4       0.24988    0.75015    -0.02085   1.00
C3a      0.24942    0.71427    0.04254   1.00
C3       0.28430    0.74318    -0.04232   1.00
C3       0.25120    0.78495    0.04232   1.00
C3a      0.21508    0.75759    -0.04254   1.00
C2       0.25007    0.75005    0.10512   1.00
C2       0.25006    0.75005    -0.10512   1.00
C3       0.24932    0.71495    0.08405   1.00
C3       0.28432    0.74303    -0.08363   1.00
C3       0.25105    0.78501    0.08363   1.00
C3       0.21572    0.75735    -0.08405   1.00
C5       0.24813    0.67506    0.02228   1.00
H1       0.31129    0.73743    -0.02691   1.00
H1       0.24858    0.68784    0.10021   1.00
H1       0.31131    0.73733    -0.09901   1.00
H1       0.25167    0.81258    0.09901   1.00
H1       0.18916    0.76282    -0.10021   1.00
C5       0.17661    0.76530    -0.02228   1.00
H1       0.25176    0.81254    0.02691   1.00
H2       0.15209    0.75920    -0.04256   1.00
H2       0.17284    0.74499    0.00269   1.00
H2       0.23659    0.65257    0.04256   1.00
H2       0.22750    0.67603    -0.00269   1.00
N1       0.17434    0.80568    -0.00857   1.00
C6       0.17308    0.83773    -0.03073   1.00
C6       0.17201    0.81749    0.02846   1.00
C6       0.17044    0.87046    -0.00759   1.00
C6       0.16975    0.85759    0.03005   1.00
H3       0.17435    0.83752    -0.06197   1.00
H3       0.17226    0.79817    0.05300   1.00
H3       0.16913    0.90037    -0.01713   1.00
H3       0.16785    0.87545    0.05575   1.00
N1       0.28692    0.66362    0.00857   1.00
C6       0.29789    0.65866    -0.02846   1.00
C6       0.31784    0.65508    0.03073   1.00
C6       0.33641    0.64730    -0.03005   1.00
C6       0.34910    0.64503    0.00759   1.00
H3       0.27914    0.66331    -0.05300   1.00
H3       0.31793    0.65636    0.06197   1.00
H3       0.35337    0.64136    -0.05575   1.00
H3       0.37792    0.63691    0.01713   1.00
C4       0.75012    0.25015    0.47915   1.00
C4       0.74988    0.24985    0.52085   1.00
C3a      0.74942    0.28573    0.45746   1.00
C3       0.78430    0.25682    0.54232   1.00
C3       0.75120    0.21505    0.45768   1.00
C3a      0.71508    0.24241    0.54254   1.00
C2       0.75007    0.24995    0.39488   1.00
C2       0.75006    0.24995    0.60512   1.00
C3       0.74932    0.28505    0.41595   1.00
C3       0.78432    0.25697    0.58363   1.00
C3       0.75105    0.21499    0.41637   1.00
C3       0.71572    0.24265    0.58405   1.00
C5       0.74813    0.32494    0.47772   1.00
H1       0.81129    0.26257    0.52691   1.00
H1       0.74858    0.31216    0.39979   1.00
H1       0.81131    0.26267    0.59901   1.00
H1       0.75167    0.18742    0.40099   1.00
H1       0.68916    0.23718    0.60021   1.00
C5       0.67661    0.23470    0.52228   1.00
H1       0.75176    0.18746    0.47309   1.00
H2       0.65209    0.24080    0.54256   1.00
H2       0.67284    0.25501    0.49731   1.00
H2       0.73659    0.34743    0.45744   1.00
H2       0.72750    0.32397    0.50269   1.00
N1       0.67434    0.19432    0.50857   1.00
C6       0.67308    0.16227    0.53073   1.00
C6       0.67201    0.18251    0.47154   1.00
C6       0.67044    0.12954    0.50759   1.00
C6       0.66975    0.14241    0.46995   1.00
H3       0.67435    0.16248    0.56197   1.00
H3       0.67226    0.20183    0.44700   1.00
H3       0.66913    0.09963    0.51713   1.00
H3       0.66785    0.12455    0.44425   1.00
N1       0.78692    0.33638    0.49143   1.00
C6       0.79789    0.34134    0.52846   1.00
C6       0.81784    0.34492    0.46927   1.00
C6       0.83641    0.35270    0.53005   1.00
C6       0.84910    0.35497    0.49241   1.00
H3       0.77914    0.33669    0.55300   1.00
H3       0.81793    0.34364    0.43803   1.00
H3       0.85337    0.35864    0.55575   1.00
H3       0.87792    0.36309    0.48287   1.00
C4       0.75015    0.47915    0.25012   1.00
C4       0.74985    0.52085    0.24988   1.00
C3a      0.78573    0.45746    0.24942   1.00
C3       0.75682    0.54232    0.28430   1.00
C3       0.71505    0.45768    0.25120   1.00
C3a      0.74241    0.54254    0.21508   1.00
C2       0.74995    0.39488    0.25007   1.00
C2       0.74995    0.60512    0.25006   1.00
C3       0.78505    0.41595    0.24932   1.00
C3       0.75697    0.58363    0.28432   1.00
C3       0.71499    0.41637    0.25105   1.00
C3       0.74265    0.58405    0.21572   1.00
C5       0.82494    0.47772    0.24813   1.00
H1       0.76257    0.52691    0.31129   1.00
H1       0.81216    0.39979    0.24858   1.00
H1       0.76267    0.59901    0.31131   1.00
H1       0.68742    0.40099    0.25167   1.00
H1       0.73718    0.60021    0.18916   1.00
C5       0.73470    0.52228    0.17661   1.00
H1       0.68746    0.47309    0.25176   1.00
H2       0.74080    0.54256    0.15209   1.00
H2       0.75501    0.49731    0.17284   1.00
H2       0.84743    0.45744    0.23659   1.00
H2       0.82397    0.50269    0.22750   1.00
N1       0.69432    0.50857    0.17434   1.00
C6       0.66227    0.53073    0.17308   1.00
C6       0.68251    0.47154    0.17201   1.00
C6       0.62954    0.50759    0.17044   1.00
C6       0.64241    0.46995    0.16975   1.00
H3       0.66248    0.56197    0.17435   1.00
H3       0.70183    0.44700    0.17226   1.00
H3       0.59963    0.51713    0.16913   1.00
H3       0.62455    0.44425    0.16785   1.00
N1       0.83638    0.49143    0.28692   1.00
C6       0.84134    0.52846    0.29789   1.00
C6       0.84492    0.46927    0.31784   1.00
C6       0.85270    0.53005    0.33641   1.00
C6       0.85497    0.49241    0.34910   1.00
H3       0.83669    0.55300    0.27914   1.00
H3       0.84364    0.43803    0.31793   1.00
H3       0.85864    0.55575    0.35337   1.00
H3       0.86309    0.48287    0.37792   1.00
C4       0.52085    0.25012    0.24985   1.00
C4       0.47915    0.24988    0.25015   1.00
C3a      0.54254    0.24942    0.21427   1.00
C3       0.45768    0.28430    0.24318   1.00
C3       0.54232    0.25120    0.28495   1.00
C3a      0.45746    0.21508    0.25759   1.00
C2       0.60512    0.25007    0.25005   1.00
C2       0.39488    0.25006    0.25005   1.00
C3       0.58405    0.24932    0.21495   1.00
C3       0.41637    0.28432    0.24303   1.00
C3       0.58363    0.25105    0.28501   1.00
C3       0.41595    0.21572    0.25735   1.00
C5       0.52228    0.24813    0.17506   1.00
H1       0.47309    0.31129    0.23743   1.00
H1       0.60021    0.24858    0.18784   1.00
H1       0.40099    0.31131    0.23733   1.00
H1       0.59901    0.25167    0.31258   1.00
H1       0.39979    0.18916    0.26282   1.00
C5       0.47772    0.17661    0.26530   1.00
H1       0.52691    0.25176    0.31254   1.00
H2       0.45744    0.15209    0.25920   1.00
H2       0.50269    0.17284    0.24499   1.00
H2       0.54256    0.23659    0.15257   1.00
H2       0.49731    0.22750    0.17603   1.00
N1       0.49143    0.17434    0.30568   1.00
C6       0.46927    0.17308    0.33773   1.00
C6       0.52846    0.17201    0.31749   1.00
C6       0.49241    0.17044    0.37046   1.00
C6       0.53005    0.16975    0.35759   1.00
H3       0.43803    0.17435    0.33752   1.00
H3       0.55300    0.17226    0.29817   1.00
H3       0.48287    0.16913    0.40037   1.00
H3       0.55575    0.16785    0.37545   1.00
N1       0.50857    0.28692    0.16362   1.00
C6       0.47154    0.29789    0.15866   1.00
C6       0.53073    0.31784    0.15508   1.00
C6       0.46995    0.33641    0.14730   1.00
C6       0.50759    0.34910    0.14503   1.00
H3       0.44700    0.27914    0.16331   1.00
H3       0.56197    0.31793    0.15636   1.00
H3       0.44425    0.35337    0.14136   1.00
H3       0.51713    0.37792    0.13691   1.00
C4       0.97915    0.25012    0.25015   1.00
C4       1.02085    0.24988    0.24985   1.00
C3a      0.95746    0.24942    0.28573   1.00
C3       1.04232    0.28430    0.25682   1.00
C3       0.95768    0.25120    0.21505   1.00
C3a      1.04254    0.21508    0.24241   1.00
C2       0.89488    0.25007    0.24995   1.00
C2       1.10512    0.25006    0.24995   1.00
C3       0.91595    0.24932    0.28505   1.00
C3       1.08363    0.28432    0.25697   1.00
C3       0.91637    0.25105    0.21499   1.00
C3       1.08405    0.21572    0.24265   1.00
C5       0.97772    0.24813    0.32494   1.00
H1       1.02691    0.31129    0.26257   1.00
H1       0.89979    0.24858    0.31216   1.00
H1       1.09901    0.31131    0.26267   1.00
H1       0.90099    0.25167    0.18742   1.00
H1       1.10021    0.18916    0.23718   1.00
C5       1.02228    0.17661    0.23470   1.00
H1       0.97309    0.25176    0.18746   1.00
H2       1.04256    0.15209    0.24080   1.00
H2       0.99731    0.17284    0.25501   1.00
H2       0.95744    0.23659    0.34743   1.00
H2       1.00269    0.22750    0.32397   1.00
N1       1.00857    0.17434    0.19432   1.00
C6       1.03073    0.17308    0.16227   1.00
C6       0.97154    0.17201    0.18251   1.00
C6       1.00759    0.17044    0.12954   1.00
C6       0.96995    0.16975    0.14241   1.00
H3       1.06197    0.17435    0.16248   1.00
H3       0.94700    0.17226    0.20183   1.00
H3       1.01713    0.16913    0.09963   1.00
H3       0.94425    0.16785    0.12455   1.00
N1       0.99143    0.28692    0.33638   1.00
C6       1.02846    0.29789    0.34134   1.00
C6       0.96927    0.31784    0.34492   1.00
C6       1.03005    0.33641    0.35270   1.00
C6       0.99241    0.34910    0.35497   1.00
H3       1.05300    0.27914    0.33669   1.00
H3       0.93803    0.31793    0.34364   1.00
H3       1.05575    0.35337    0.35864   1.00
H3       0.98287    0.37792    0.36309   1.00
C4       0.74985    0.02085    0.25012   1.00
C4       0.75015    -0.02085   0.24988   1.00
C3a      0.71427    0.04254    0.24942   1.00
C3       0.74318    -0.04232   0.28430   1.00
C3       0.78495    0.04232    0.25120   1.00
C3a      0.75759    -0.04254   0.21508   1.00
C2       0.75005    0.10512    0.25007   1.00
C2       0.75005    -0.10512   0.25006   1.00
C3       0.71495    0.08405    0.24932   1.00
C3       0.74303    -0.08363   0.28432   1.00
C3       0.78501    0.08363    0.25105   1.00
C3       0.75735    -0.08405   0.21572   1.00
C5       0.67506    0.02228    0.24813   1.00
H1       0.73743    -0.02691   0.31129   1.00
H1       0.68784    0.10021    0.24858   1.00
H1       0.73733    -0.09901   0.31131   1.00
H1       0.81258    0.09901    0.25167   1.00
H1       0.76282    -0.10021   0.18916   1.00
C5       0.76530    -0.02228   0.17661   1.00
H1       0.81254    0.02691    0.25176   1.00
H2       0.75920    -0.04256   0.15209   1.00
H2       0.74499    0.00269    0.17284   1.00
H2       0.65257    0.04256    0.23659   1.00
H2       0.67603    -0.00269   0.22750   1.00
N1       0.80568    -0.00857   0.17434   1.00
C6       0.83773    -0.03073   0.17308   1.00
C6       0.81749    0.02846    0.17201   1.00
C6       0.87046    -0.00759   0.17044   1.00
C6       0.85759    0.03005    0.16975   1.00
H3       0.83752    -0.06197   0.17435   1.00
H3       0.79817    0.05300    0.17226   1.00
H3       0.90037    -0.01713   0.16913   1.00
H3       0.87545    0.05575    0.16785   1.00
N1       0.66362    0.00857    0.28692   1.00
C6       0.65866    -0.02846   0.29789   1.00
C6       0.65508    0.03073    0.31784   1.00
C6       0.64730    -0.03005   0.33641   1.00
C6       0.64503    0.00759    0.34910   1.00
H3       0.66331    -0.05300   0.27914   1.00
H3       0.65636    0.06197    0.31793   1.00
H3       0.64136    -0.05575   0.35337   1.00
H3       0.63691    0.01713    0.37792   1.00
C4       0.75012    0.24985    0.02085   1.00
C4       0.74988    0.25015    -0.02085   1.00
C3a      0.74942    0.21427    0.04254   1.00
C3       0.78430    0.24318    -0.04232   1.00
C3       0.75120    0.28495    0.04232   1.00
C3a      0.71508    0.25759    -0.04254   1.00
C2       0.75007    0.25005    0.10512   1.00
C2       0.75006    0.25005    -0.10512   1.00
C3       0.74932    0.21495    0.08405   1.00
C3       0.78432    0.24303    -0.08363   1.00
C3       0.75105    0.28501    0.08363   1.00
C3       0.71572    0.25735    -0.08405   1.00
C5       0.74813    0.17506    0.02228   1.00
H1       0.81129    0.23743    -0.02691   1.00
H1       0.74858    0.18784    0.10021   1.00
H1       0.81131    0.23733    -0.09901   1.00
H1       0.75167    0.31258    0.09901   1.00
H1       0.68916    0.26282    -0.10021   1.00
C5       0.67661    0.26530    -0.02228   1.00
H1       0.75176    0.31254    0.02691   1.00
H2       0.65209    0.25920    -0.04256   1.00
H2       0.67284    0.24499    0.00269   1.00
H2       0.73659    0.15257    0.04256   1.00
H2       0.72750    0.17603    -0.00269   1.00
N1       0.67434    0.30568    -0.00857   1.00
C6       0.67308    0.33773    -0.03073   1.00
C6       0.67201    0.31749    0.02846   1.00
C6       0.67044    0.37046    -0.00759   1.00
C6       0.66975    0.35759    0.03005   1.00
H3       0.67435    0.33752    -0.06197   1.00
H3       0.67226    0.29817    0.05300   1.00
H3       0.66913    0.40037    -0.01713   1.00
H3       0.66785    0.37545    0.05575   1.00
N1       0.78692    0.16362    0.00857   1.00
C6       0.79789    0.15866    -0.02846   1.00
C6       0.81784    0.15508    0.03073   1.00
C6       0.83641    0.14730    -0.03005   1.00
C6       0.84910    0.14503    0.00759   1.00
H3       0.77914    0.16331    -0.05300   1.00
H3       0.81793    0.15636    0.06197   1.00
H3       0.85337    0.14136    -0.05575   1.00
H3       0.87792    0.13691    0.01713   1.00
C4       0.91512    0.91515    1.14415   1.00
C4       0.91488    0.91485    1.18585   1.00
C3a      0.91442    0.95073    1.12246   1.00
C3       0.94930    0.92182    1.20732   1.00
C3       0.91620    0.88005    1.12268   1.00
C3a      0.88008    0.90741    1.20754   1.00
C2       0.91507    0.91495    1.05988   1.00
C2       0.91506    0.91495    1.27012   1.00
C3       0.91432    0.95005    1.08095   1.00
C3       0.94932    0.92197    1.24863   1.00
C3       0.91605    0.87999    1.08137   1.00
C3       0.88072    0.90765    1.24905   1.00
C5       0.91313    0.98994    1.14272   1.00
H1       0.97629    0.92757    1.19191   1.00
H1       0.91358    0.97716    1.06479   1.00
H1       0.97631    0.92767    1.26401   1.00
H1       0.91667    0.85242    1.06599   1.00
H1       0.85416    0.90218    1.26521   1.00
C5       0.84161    0.89970    1.18728   1.00
H1       0.91676    0.85246    1.13809   1.00
H2       0.81709    0.90580    1.20756   1.00
H2       0.83784    0.92001    1.16231   1.00
H2       0.90159    1.01243    1.12244   1.00
H2       0.89250    0.98897    1.16769   1.00
N1       0.83934    0.85932    1.17357   1.00
C6       0.83808    0.82727    1.19573   1.00
C6       0.83701    0.84751    1.13654   1.00
C6       0.83544    0.79454    1.17259   1.00
C6       0.83475    0.80741    1.13495   1.00
H3       0.83935    0.82748    1.22697   1.00
H3       0.83726    0.86683    1.11200   1.00
H3       0.83413    0.76463    1.18213   1.00
H3       0.83285    0.78955    1.10925   1.00
N1       0.95192    1.00138    1.15643   1.00
C6       0.96289    1.00634    1.19346   1.00
C6       0.98284    1.00992    1.13427   1.00
C6       1.00141    1.01770    1.19505   1.00
C6       1.01410    1.01997    1.15741   1.00
H3       0.94414    1.00169    1.21800   1.00
H3       0.98293    1.00864    1.10303   1.00
H3       1.01837    1.02364    1.22075   1.00
H3       1.04292    1.02809    1.14787   1.00
C4       0.91515    1.14415    0.91512   1.00
C4       0.91485    1.18585    0.91488   1.00
C3a      0.95073    1.12246    0.91442   1.00
C3       0.92182    1.20732    0.94930   1.00
C3       0.88005    1.12268    0.91620   1.00
C3a      0.90741    1.20754    0.88008   1.00
C2       0.91495    1.05988    0.91507   1.00
C2       0.91495    1.27012    0.91506   1.00
C3       0.95005    1.08095    0.91432   1.00
C3       0.92197    1.24863    0.94932   1.00
C3       0.87999    1.08137    0.91605   1.00
C3       0.90765    1.24905    0.88072   1.00
C5       0.98994    1.14272    0.91313   1.00
H1       0.92757    1.19191    0.97629   1.00
H1       0.97716    1.06479    0.91358   1.00
H1       0.92767    1.26401    0.97631   1.00
H1       0.85242    1.06599    0.91667   1.00
H1       0.90218    1.26521    0.85416   1.00
C5       0.89970    1.18728    0.84161   1.00
H1       0.85246    1.13809    0.91676   1.00
H2       0.90580    1.20756    0.81709   1.00
H2       0.92001    1.16231    0.83784   1.00
H2       1.01243    1.12244    0.90159   1.00
H2       0.98897    1.16769    0.89250   1.00
N1       0.85932    1.17357    0.83934   1.00
C6       0.82727    1.19573    0.83808   1.00
C6       0.84751    1.13654    0.83701   1.00
C6       0.79454    1.17259    0.83544   1.00
C6       0.80741    1.13495    0.83475   1.00
H3       0.82748    1.22697    0.83935   1.00
H3       0.86683    1.11200    0.83726   1.00
H3       0.76463    1.18213    0.83413   1.00
H3       0.78955    1.10925    0.83285   1.00
N1       1.00138    1.15643    0.95192   1.00
C6       1.00634    1.19346    0.96289   1.00
C6       1.00992    1.13427    0.98284   1.00
C6       1.01770    1.19505    1.00141   1.00
C6       1.01997    1.15741    1.01410   1.00
H3       1.00169    1.21800    0.94414   1.00
H3       1.00864    1.10303    0.98293   1.00
H3       1.02364    1.22075    1.01837   1.00
H3       1.02809    1.14787    1.04292   1.00
C4       0.68585    0.91512    0.91485   1.00
C4       0.64415    0.91488    0.91515   1.00
C3a      0.70754    0.91442    0.87927   1.00
C3       0.62268    0.94930    0.90818   1.00
C3       0.70732    0.91620    0.94995   1.00
C3a      0.62246    0.88008    0.92259   1.00
C2       0.77012    0.91507    0.91505   1.00
C2       0.55988    0.91506    0.91505   1.00
C3       0.74905    0.91432    0.87995   1.00
C3       0.58137    0.94932    0.90803   1.00
C3       0.74863    0.91605    0.95001   1.00
C3       0.58095    0.88072    0.92235   1.00
C5       0.68728    0.91313    0.84006   1.00
H1       0.63809    0.97629    0.90243   1.00
H1       0.76521    0.91358    0.85284   1.00
H1       0.56599    0.97631    0.90233   1.00
H1       0.76401    0.91667    0.97758   1.00
H1       0.56479    0.85416    0.92782   1.00
C5       0.64272    0.84161    0.93030   1.00
H1       0.69191    0.91676    0.97754   1.00
H2       0.62244    0.81709    0.92420   1.00
H2       0.66769    0.83784    0.90999   1.00
H2       0.70756    0.90159    0.81757   1.00
H2       0.66231    0.89250    0.84103   1.00
N1       0.65643    0.83934    0.97068   1.00
C6       0.63427    0.83808    1.00273   1.00
C6       0.69346    0.83701    0.98249   1.00
C6       0.65741    0.83544    1.03546   1.00
C6       0.69505    0.83475    1.02259   1.00
H3       0.60303    0.83935    1.00252   1.00
H3       0.71800    0.83726    0.96317   1.00
H3       0.64787    0.83413    1.06537   1.00
H3       0.72075    0.83285    1.04045   1.00
N1       0.67357    0.95192    0.82862   1.00
C6       0.63654    0.96289    0.82366   1.00
C6       0.69573    0.98284    0.82008   1.00
C6       0.63495    1.00141    0.81230   1.00
C6       0.67259    1.01410    0.81003   1.00
H3       0.61200    0.94414    0.82831   1.00
H3       0.72697    0.98293    0.82136   1.00
H3       0.60925    1.01837    0.80636   1.00
H3       0.68213    1.04292    0.80191   1.00
C4       1.14415    0.91512    0.91515   1.00
C4       1.18585    0.91488    0.91485   1.00
C3a      1.12246    0.91442    0.95073   1.00
C3       1.20732    0.94930    0.92182   1.00
C3       1.12268    0.91620    0.88005   1.00
C3a      1.20754    0.88008    0.90741   1.00
C2       1.05988    0.91507    0.91495   1.00
C2       1.27012    0.91506    0.91495   1.00
C3       1.08095    0.91432    0.95005   1.00
C3       1.24863    0.94932    0.92197   1.00
C3       1.08137    0.91605    0.87999   1.00
C3       1.24905    0.88072    0.90765   1.00
C5       1.14272    0.91313    0.98994   1.00
H1       1.19191    0.97629    0.92757   1.00
H1       1.06479    0.91358    0.97716   1.00
H1       1.26401    0.97631    0.92767   1.00
H1       1.06599    0.91667    0.85242   1.00
H1       1.26521    0.85416    0.90218   1.00
C5       1.18728    0.84161    0.89970   1.00
H1       1.13809    0.91676    0.85246   1.00
H2       1.20756    0.81709    0.90580   1.00
H2       1.16231    0.83784    0.92001   1.00
H2       1.12244    0.90159    1.01243   1.00
H2       1.16769    0.89250    0.98897   1.00
N1       1.17357    0.83934    0.85932   1.00
C6       1.19573    0.83808    0.82727   1.00
C6       1.13654    0.83701    0.84751   1.00
C6       1.17259    0.83544    0.79454   1.00
C6       1.13495    0.83475    0.80741   1.00
H3       1.22697    0.83935    0.82748   1.00
H3       1.11200    0.83726    0.86683   1.00
H3       1.18213    0.83413    0.76463   1.00
H3       1.10925    0.83285    0.78955   1.00
N1       1.15643    0.95192    1.00138   1.00
C6       1.19346    0.96289    1.00634   1.00
C6       1.13427    0.98284    1.00992   1.00
C6       1.19505    1.00141    1.01770   1.00
C6       1.15741    1.01410    1.01997   1.00
H3       1.21800    0.94414    1.00169   1.00
H3       1.10303    0.98293    1.00864   1.00
H3       1.22075    1.01837    1.02364   1.00
H3       1.14787    1.04292    1.02809   1.00
C4       0.91485    0.68585    0.91512   1.00
C4       0.91515    0.64415    0.91488   1.00
C3a      0.87927    0.70754    0.91442   1.00
C3       0.90818    0.62268    0.94930   1.00
C3       0.94995    0.70732    0.91620   1.00
C3a      0.92259    0.62246    0.88008   1.00
C2       0.91505    0.77012    0.91507   1.00
C2       0.91505    0.55988    0.91506   1.00
C3       0.87995    0.74905    0.91432   1.00
C3       0.90803    0.58137    0.94932   1.00
C3       0.95001    0.74863    0.91605   1.00
C3       0.92235    0.58095    0.88072   1.00
C5       0.84006    0.68728    0.91313   1.00
H1       0.90243    0.63809    0.97629   1.00
H1       0.85284    0.76521    0.91358   1.00
H1       0.90233    0.56599    0.97631   1.00
H1       0.97758    0.76401    0.91667   1.00
H1       0.92782    0.56479    0.85416   1.00
C5       0.93030    0.64272    0.84161   1.00
H1       0.97754    0.69191    0.91676   1.00
H2       0.92420    0.62244    0.81709   1.00
H2       0.90999    0.66769    0.83784   1.00
H2       0.81757    0.70756    0.90159   1.00
H2       0.84103    0.66231    0.89250   1.00
N1       0.97068    0.65643    0.83934   1.00
C6       1.00273    0.63427    0.83808   1.00
C6       0.98249    0.69346    0.83701   1.00
C6       1.03546    0.65741    0.83544   1.00
C6       1.02259    0.69505    0.83475   1.00
H3       1.00252    0.60303    0.83935   1.00
H3       0.96317    0.71800    0.83726   1.00
H3       1.06537    0.64787    0.83413   1.00
H3       1.04045    0.72075    0.83285   1.00
N1       0.82862    0.67357    0.95192   1.00
C6       0.82366    0.63654    0.96289   1.00
C6       0.82008    0.69573    0.98284   1.00
C6       0.81230    0.63495    1.00141   1.00
C6       0.81003    0.67259    1.01410   1.00
H3       0.82831    0.61200    0.94414   1.00
H3       0.82136    0.72697    0.98293   1.00
H3       0.80636    0.60925    1.01837   1.00
H3       0.80191    0.68213    1.04292   1.00
C4       0.91512    0.91485    0.68585   1.00
C4       0.91488    0.91515    0.64415   1.00
C3a      0.91442    0.87927    0.70754   1.00
C3       0.94930    0.90818    0.62268   1.00
C3       0.91620    0.94995    0.70732   1.00
C3a      0.88008    0.92259    0.62246   1.00
C2       0.91507    0.91505    0.77012   1.00
C2       0.91506    0.91505    0.55988   1.00
C3       0.91432    0.87995    0.74905   1.00
C3       0.94932    0.90803    0.58137   1.00
C3       0.91605    0.95001    0.74863   1.00
C3       0.88072    0.92235    0.58095   1.00
C5       0.91313    0.84006    0.68728   1.00
H1       0.97629    0.90243    0.63809   1.00
H1       0.91358    0.85284    0.76521   1.00
H1       0.97631    0.90233    0.56599   1.00
H1       0.91667    0.97758    0.76401   1.00
H1       0.85416    0.92782    0.56479   1.00
C5       0.84161    0.93030    0.64272   1.00
H1       0.91676    0.97754    0.69191   1.00
H2       0.81709    0.92420    0.62244   1.00
H2       0.83784    0.90999    0.66769   1.00
H2       0.90159    0.81757    0.70756   1.00
H2       0.89250    0.84103    0.66231   1.00
N1       0.83934    0.97068    0.65643   1.00
C6       0.83808    1.00273    0.63427   1.00
C6       0.83701    0.98249    0.69346   1.00
C6       0.83544    1.03546    0.65741   1.00
C6       0.83475    1.02259    0.69505   1.00
H3       0.83935    1.00252    0.60303   1.00
H3       0.83726    0.96317    0.71800   1.00
H3       0.83413    1.06537    0.64787   1.00
H3       0.83285    1.04045    0.72075   1.00
N1       0.95192    0.82862    0.67357   1.00
C6       0.96289    0.82366    0.63654   1.00
C6       0.98284    0.82008    0.69573   1.00
C6       1.00141    0.81230    0.63495   1.00
C6       1.01410    0.81003    0.67259   1.00
H3       0.94414    0.82831    0.61200   1.00
H3       0.98293    0.82136    0.72697   1.00
H3       1.01837    0.80636    0.60925   1.00
H3       1.04292    0.80191    0.68213   1.00
C4       0.41512    0.41515    1.14415   1.00
C4       0.41488    0.41485    1.18585   1.00
C3a      0.41442    0.45073    1.12246   1.00
C3       0.44930    0.42182    1.20732   1.00
C3       0.41620    0.38005    1.12268   1.00
C3a      0.38008    0.40741    1.20754   1.00
C2       0.41507    0.41495    1.05988   1.00
C2       0.41506    0.41495    1.27012   1.00
C3       0.41432    0.45005    1.08095   1.00
C3       0.44932    0.42197    1.24863   1.00
C3       0.41605    0.37999    1.08137   1.00
C3       0.38072    0.40765    1.24905   1.00
C5       0.41313    0.48994    1.14272   1.00
H1       0.47629    0.42757    1.19191   1.00
H1       0.41358    0.47716    1.06479   1.00
H1       0.47631    0.42767    1.26401   1.00
H1       0.41667    0.35242    1.06599   1.00
H1       0.35416    0.40218    1.26521   1.00
C5       0.34161    0.39970    1.18728   1.00
H1       0.41676    0.35246    1.13809   1.00
H2       0.31709    0.40580    1.20756   1.00
H2       0.33784    0.42001    1.16231   1.00
H2       0.40159    0.51243    1.12244   1.00
H2       0.39250    0.48897    1.16769   1.00
N1       0.33934    0.35932    1.17357   1.00
C6       0.33808    0.32727    1.19573   1.00
C6       0.33701    0.34751    1.13654   1.00
C6       0.33544    0.29454    1.17259   1.00
C6       0.33475    0.30741    1.13495   1.00
H3       0.33935    0.32748    1.22697   1.00
H3       0.33726    0.36683    1.11200   1.00
H3       0.33413    0.26463    1.18213   1.00
H3       0.33285    0.28955    1.10925   1.00
N1       0.45192    0.50138    1.15643   1.00
C6       0.46289    0.50634    1.19346   1.00
C6       0.48284    0.50992    1.13427   1.00
C6       0.50141    0.51770    1.19505   1.00
C6       0.51410    0.51997    1.15741   1.00
H3       0.44414    0.50169    1.21800   1.00
H3       0.48293    0.50864    1.10303   1.00
H3       0.51837    0.52364    1.22075   1.00
H3       0.54292    0.52809    1.14787   1.00
C4       0.41515    0.64415    0.91512   1.00
C4       0.41485    0.68585    0.91488   1.00
C3a      0.45073    0.62246    0.91442   1.00
C3       0.42182    0.70732    0.94930   1.00
C3       0.38005    0.62268    0.91620   1.00
C3a      0.40741    0.70754    0.88008   1.00
C2       0.41495    0.55988    0.91507   1.00
C2       0.41495    0.77012    0.91506   1.00
C3       0.45005    0.58095    0.91432   1.00
C3       0.42197    0.74863    0.94932   1.00
C3       0.37999    0.58137    0.91605   1.00
C3       0.40765    0.74905    0.88072   1.00
C5       0.48994    0.64272    0.91313   1.00
H1       0.42757    0.69191    0.97629   1.00
H1       0.47716    0.56479    0.91358   1.00
H1       0.42767    0.76401    0.97631   1.00
H1       0.35242    0.56599    0.91667   1.00
H1       0.40218    0.76521    0.85416   1.00
C5       0.39970    0.68728    0.84161   1.00
H1       0.35246    0.63809    0.91676   1.00
H2       0.40580    0.70756    0.81709   1.00
H2       0.42001    0.66231    0.83784   1.00
H2       0.51243    0.62244    0.90159   1.00
H2       0.48897    0.66769    0.89250   1.00
N1       0.35932    0.67357    0.83934   1.00
C6       0.32727    0.69573    0.83808   1.00
C6       0.34751    0.63654    0.83701   1.00
C6       0.29454    0.67259    0.83544   1.00
C6       0.30741    0.63495    0.83475   1.00
H3       0.32748    0.72697    0.83935   1.00
H3       0.36683    0.61200    0.83726   1.00
H3       0.26463    0.68213    0.83413   1.00
H3       0.28955    0.60925    0.83285   1.00
N1       0.50138    0.65643    0.95192   1.00
C6       0.50634    0.69346    0.96289   1.00
C6       0.50992    0.63427    0.98284   1.00
C6       0.51770    0.69505    1.00141   1.00
C6       0.51997    0.65741    1.01410   1.00
H3       0.50169    0.71800    0.94414   1.00
H3       0.50864    0.60303    0.98293   1.00
H3       0.52364    0.72075    1.01837   1.00
H3       0.52809    0.64787    1.04292   1.00
C4       0.18585    0.41512    0.91485   1.00
C4       0.14415    0.41488    0.91515   1.00
C3a      0.20754    0.41442    0.87927   1.00
C3       0.12268    0.44930    0.90818   1.00
C3       0.20732    0.41620    0.94995   1.00
C3a      0.12246    0.38008    0.92259   1.00
C2       0.27012    0.41507    0.91505   1.00
C2       0.05988    0.41506    0.91505   1.00
C3       0.24905    0.41432    0.87995   1.00
C3       0.08137    0.44932    0.90803   1.00
C3       0.24863    0.41605    0.95001   1.00
C3       0.08095    0.38072    0.92235   1.00
C5       0.18728    0.41313    0.84006   1.00
H1       0.13809    0.47629    0.90243   1.00
H1       0.26521    0.41358    0.85284   1.00
H1       0.06599    0.47631    0.90233   1.00
H1       0.26401    0.41667    0.97758   1.00
H1       0.06479    0.35416    0.92782   1.00
C5       0.14272    0.34161    0.93030   1.00
H1       0.19191    0.41676    0.97754   1.00
H2       0.12244    0.31709    0.92420   1.00
H2       0.16769    0.33784    0.90999   1.00
H2       0.20756    0.40159    0.81757   1.00
H2       0.16231    0.39250    0.84103   1.00
N1       0.15643    0.33934    0.97068   1.00
C6       0.13427    0.33808    1.00273   1.00
C6       0.19346    0.33701    0.98249   1.00
C6       0.15741    0.33544    1.03546   1.00
C6       0.19505    0.33475    1.02259   1.00
H3       0.10303    0.33935    1.00252   1.00
H3       0.21800    0.33726    0.96317   1.00
H3       0.14787    0.33413    1.06537   1.00
H3       0.22075    0.33285    1.04045   1.00
N1       0.17357    0.45192    0.82862   1.00
C6       0.13654    0.46289    0.82366   1.00
C6       0.19573    0.48284    0.82008   1.00
C6       0.13495    0.50141    0.81230   1.00
C6       0.17259    0.51410    0.81003   1.00
H3       0.11200    0.44414    0.82831   1.00
H3       0.22697    0.48293    0.82136   1.00
H3       0.10925    0.51837    0.80636   1.00
H3       0.18213    0.54292    0.80191   1.00
C4       0.64415    0.41512    0.91515   1.00
C4       0.68585    0.41488    0.91485   1.00
C3a      0.62246    0.41442    0.95073   1.00
C3       0.70732    0.44930    0.92182   1.00
C3       0.62268    0.41620    0.88005   1.00
C3a      0.70754    0.38008    0.90741   1.00
C2       0.55988    0.41507    0.91495   1.00
C2       0.77012    0.41506    0.91495   1.00
C3       0.58095    0.41432    0.95005   1.00
C3       0.74863    0.44932    0.92197   1.00
C3       0.58137    0.41605    0.87999   1.00
C3       0.74905    0.38072    0.90765   1.00
C5       0.64272    0.41313    0.98994   1.00
H1       0.69191    0.47629    0.92757   1.00
H1       0.56479    0.41358    0.97716   1.00
H1       0.76401    0.47631    0.92767   1.00
H1       0.56599    0.41667    0.85242   1.00
H1       0.76521    0.35416    0.90218   1.00
C5       0.68728    0.34161    0.89970   1.00
H1       0.63809    0.41676    0.85246   1.00
H2       0.70756    0.31709    0.90580   1.00
H2       0.66231    0.33784    0.92001   1.00
H2       0.62244    0.40159    1.01243   1.00
H2       0.66769    0.39250    0.98897   1.00
N1       0.67357    0.33934    0.85932   1.00
C6       0.69573    0.33808    0.82727   1.00
C6       0.63654    0.33701    0.84751   1.00
C6       0.67259    0.33544    0.79454   1.00
C6       0.63495    0.33475    0.80741   1.00
H3       0.72697    0.33935    0.82748   1.00
H3       0.61200    0.33726    0.86683   1.00
H3       0.68213    0.33413    0.76463   1.00
H3       0.60925    0.33285    0.78955   1.00
N1       0.65643    0.45192    1.00138   1.00
C6       0.69346    0.46289    1.00634   1.00
C6       0.63427    0.48284    1.00992   1.00
C6       0.69505    0.50141    1.01770   1.00
C6       0.65741    0.51410    1.01997   1.00
H3       0.71800    0.44414    1.00169   1.00
H3       0.60303    0.48293    1.00864   1.00
H3       0.72075    0.51837    1.02364   1.00
H3       0.64787    0.54292    1.02809   1.00
C4       0.41485    0.18585    0.91512   1.00
C4       0.41515    0.14415    0.91488   1.00
C3a      0.37927    0.20754    0.91442   1.00
C3       0.40818    0.12268    0.94930   1.00
C3       0.44995    0.20732    0.91620   1.00
C3a      0.42259    0.12246    0.88008   1.00
C2       0.41505    0.27012    0.91507   1.00
C2       0.41505    0.05988    0.91506   1.00
C3       0.37995    0.24905    0.91432   1.00
C3       0.40803    0.08137    0.94932   1.00
C3       0.45001    0.24863    0.91605   1.00
C3       0.42235    0.08095    0.88072   1.00
C5       0.34006    0.18728    0.91313   1.00
H1       0.40243    0.13809    0.97629   1.00
H1       0.35284    0.26521    0.91358   1.00
H1       0.40233    0.06599    0.97631   1.00
H1       0.47758    0.26401    0.91667   1.00
H1       0.42782    0.06479    0.85416   1.00
C5       0.43030    0.14272    0.84161   1.00
H1       0.47754    0.19191    0.91676   1.00
H2       0.42420    0.12244    0.81709   1.00
H2       0.40999    0.16769    0.83784   1.00
H2       0.31757    0.20756    0.90159   1.00
H2       0.34103    0.16231    0.89250   1.00
N1       0.47068    0.15643    0.83934   1.00
C6       0.50273    0.13427    0.83808   1.00
C6       0.48249    0.19346    0.83701   1.00
C6       0.53546    0.15741    0.83544   1.00
C6       0.52259    0.19505    0.83475   1.00
H3       0.50252    0.10303    0.83935   1.00
H3       0.46317    0.21800    0.83726   1.00
H3       0.56537    0.14787    0.83413   1.00
H3       0.54045    0.22075    0.83285   1.00
N1       0.32862    0.17357    0.95192   1.00
C6       0.32366    0.13654    0.96289   1.00
C6       0.32008    0.19573    0.98284   1.00
C6       0.31230    0.13495    1.00141   1.00
C6       0.31003    0.17259    1.01410   1.00
H3       0.32831    0.11200    0.94414   1.00
H3       0.32136    0.22697    0.98293   1.00
H3       0.30636    0.10925    1.01837   1.00
H3       0.30191    0.18213    1.04292   1.00
C4       0.41512    0.41485    0.68585   1.00
C4       0.41488    0.41515    0.64415   1.00
C3a      0.41442    0.37927    0.70754   1.00
C3       0.44930    0.40818    0.62268   1.00
C3       0.41620    0.44995    0.70732   1.00
C3a      0.38008    0.42259    0.62246   1.00
C2       0.41507    0.41505    0.77012   1.00
C2       0.41506    0.41505    0.55988   1.00
C3       0.41432    0.37995    0.74905   1.00
C3       0.44932    0.40803    0.58137   1.00
C3       0.41605    0.45001    0.74863   1.00
C3       0.38072    0.42235    0.58095   1.00
C5       0.41313    0.34006    0.68728   1.00
H1       0.47629    0.40243    0.63809   1.00
H1       0.41358    0.35284    0.76521   1.00
H1       0.47631    0.40233    0.56599   1.00
H1       0.41667    0.47758    0.76401   1.00
H1       0.35416    0.42782    0.56479   1.00
C5       0.34161    0.43030    0.64272   1.00
H1       0.41676    0.47754    0.69191   1.00
H2       0.31709    0.42420    0.62244   1.00
H2       0.33784    0.40999    0.66769   1.00
H2       0.40159    0.31757    0.70756   1.00
H2       0.39250    0.34103    0.66231   1.00
N1       0.33934    0.47068    0.65643   1.00
C6       0.33808    0.50273    0.63427   1.00
C6       0.33701    0.48249    0.69346   1.00
C6       0.33544    0.53546    0.65741   1.00
C6       0.33475    0.52259    0.69505   1.00
H3       0.33935    0.50252    0.60303   1.00
H3       0.33726    0.46317    0.71800   1.00
H3       0.33413    0.56537    0.64787   1.00
H3       0.33285    0.54045    0.72075   1.00
N1       0.45192    0.32862    0.67357   1.00
C6       0.46289    0.32366    0.63654   1.00
C6       0.48284    0.32008    0.69573   1.00
C6       0.50141    0.31230    0.63495   1.00
C6       0.51410    0.31003    0.67259   1.00
H3       0.44414    0.32831    0.61200   1.00
H3       0.48293    0.32136    0.72697   1.00
H3       0.51837    0.30636    0.60925   1.00
H3       0.54292    0.30191    0.68213   1.00
C4       0.41512    0.91515    0.64415   1.00
C4       0.41488    0.91485    0.68585   1.00
C3a      0.41442    0.95073    0.62246   1.00
C3       0.44930    0.92182    0.70732   1.00
C3       0.41620    0.88005    0.62268   1.00
C3a      0.38008    0.90741    0.70754   1.00
C2       0.41507    0.91495    0.55988   1.00
C2       0.41506    0.91495    0.77012   1.00
C3       0.41432    0.95005    0.58095   1.00
C3       0.44932    0.92197    0.74863   1.00
C3       0.41605    0.87999    0.58137   1.00
C3       0.38072    0.90765    0.74905   1.00
C5       0.41313    0.98994    0.64272   1.00
H1       0.47629    0.92757    0.69191   1.00
H1       0.41358    0.97716    0.56479   1.00
H1       0.47631    0.92767    0.76401   1.00
H1       0.41667    0.85242    0.56599   1.00
H1       0.35416    0.90218    0.76521   1.00
C5       0.34161    0.89970    0.68728   1.00
H1       0.41676    0.85246    0.63809   1.00
H2       0.31709    0.90580    0.70756   1.00
H2       0.33784    0.92001    0.66231   1.00
H2       0.40159    1.01243    0.62244   1.00
H2       0.39250    0.98897    0.66769   1.00
N1       0.33934    0.85932    0.67357   1.00
C6       0.33808    0.82727    0.69573   1.00
C6       0.33701    0.84751    0.63654   1.00
C6       0.33544    0.79454    0.67259   1.00
C6       0.33475    0.80741    0.63495   1.00
H3       0.33935    0.82748    0.72697   1.00
H3       0.33726    0.86683    0.61200   1.00
H3       0.33413    0.76463    0.68213   1.00
H3       0.33285    0.78955    0.60925   1.00
N1       0.45192    1.00138    0.65643   1.00
C6       0.46289    1.00634    0.69346   1.00
C6       0.48284    1.00992    0.63427   1.00
C6       0.50141    1.01770    0.69505   1.00
C6       0.51410    1.01997    0.65741   1.00
H3       0.44414    1.00169    0.71800   1.00
H3       0.48293    1.00864    0.60303   1.00
H3       0.51837    1.02364    0.72075   1.00
H3       0.54292    1.02809    0.64787   1.00
C4       0.41515    1.14415    0.41512   1.00
C4       0.41485    1.18585    0.41488   1.00
C3a      0.45073    1.12246    0.41442   1.00
C3       0.42182    1.20732    0.44930   1.00
C3       0.38005    1.12268    0.41620   1.00
C3a      0.40741    1.20754    0.38008   1.00
C2       0.41495    1.05988    0.41507   1.00
C2       0.41495    1.27012    0.41506   1.00
C3       0.45005    1.08095    0.41432   1.00
C3       0.42197    1.24863    0.44932   1.00
C3       0.37999    1.08137    0.41605   1.00
C3       0.40765    1.24905    0.38072   1.00
C5       0.48994    1.14272    0.41313   1.00
H1       0.42757    1.19191    0.47629   1.00
H1       0.47716    1.06479    0.41358   1.00
H1       0.42767    1.26401    0.47631   1.00
H1       0.35242    1.06599    0.41667   1.00
H1       0.40218    1.26521    0.35416   1.00
C5       0.39970    1.18728    0.34161   1.00
H1       0.35246    1.13809    0.41676   1.00
H2       0.40580    1.20756    0.31709   1.00
H2       0.42001    1.16231    0.33784   1.00
H2       0.51243    1.12244    0.40159   1.00
H2       0.48897    1.16769    0.39250   1.00
N1       0.35932    1.17357    0.33934   1.00
C6       0.32727    1.19573    0.33808   1.00
C6       0.34751    1.13654    0.33701   1.00
C6       0.29454    1.17259    0.33544   1.00
C6       0.30741    1.13495    0.33475   1.00
H3       0.32748    1.22697    0.33935   1.00
H3       0.36683    1.11200    0.33726   1.00
H3       0.26463    1.18213    0.33413   1.00
H3       0.28955    1.10925    0.33285   1.00
N1       0.50138    1.15643    0.45192   1.00
C6       0.50634    1.19346    0.46289   1.00
C6       0.50992    1.13427    0.48284   1.00
C6       0.51770    1.19505    0.50141   1.00
C6       0.51997    1.15741    0.51410   1.00
H3       0.50169    1.21800    0.44414   1.00
H3       0.50864    1.10303    0.48293   1.00
H3       0.52364    1.22075    0.51837   1.00
H3       0.52809    1.14787    0.54292   1.00
C4       0.18585    0.91512    0.41485   1.00
C4       0.14415    0.91488    0.41515   1.00
C3a      0.20754    0.91442    0.37927   1.00
C3       0.12268    0.94930    0.40818   1.00
C3       0.20732    0.91620    0.44995   1.00
C3a      0.12246    0.88008    0.42259   1.00
C2       0.27012    0.91507    0.41505   1.00
C2       0.05988    0.91506    0.41505   1.00
C3       0.24905    0.91432    0.37995   1.00
C3       0.08137    0.94932    0.40803   1.00
C3       0.24863    0.91605    0.45001   1.00
C3       0.08095    0.88072    0.42235   1.00
C5       0.18728    0.91313    0.34006   1.00
H1       0.13809    0.97629    0.40243   1.00
H1       0.26521    0.91358    0.35284   1.00
H1       0.06599    0.97631    0.40233   1.00
H1       0.26401    0.91667    0.47758   1.00
H1       0.06479    0.85416    0.42782   1.00
C5       0.14272    0.84161    0.43030   1.00
H1       0.19191    0.91676    0.47754   1.00
H2       0.12244    0.81709    0.42420   1.00
H2       0.16769    0.83784    0.40999   1.00
H2       0.20756    0.90159    0.31757   1.00
H2       0.16231    0.89250    0.34103   1.00
N1       0.15643    0.83934    0.47068   1.00
C6       0.13427    0.83808    0.50273   1.00
C6       0.19346    0.83701    0.48249   1.00
C6       0.15741    0.83544    0.53546   1.00
C6       0.19505    0.83475    0.52259   1.00
H3       0.10303    0.83935    0.50252   1.00
H3       0.21800    0.83726    0.46317   1.00
H3       0.14787    0.83413    0.56537   1.00
H3       0.22075    0.83285    0.54045   1.00
N1       0.17357    0.95192    0.32862   1.00
C6       0.13654    0.96289    0.32366   1.00
C6       0.19573    0.98284    0.32008   1.00
C6       0.13495    1.00141    0.31230   1.00
C6       0.17259    1.01410    0.31003   1.00
H3       0.11200    0.94414    0.32831   1.00
H3       0.22697    0.98293    0.32136   1.00
H3       0.10925    1.01837    0.30636   1.00
H3       0.18213    1.04292    0.30191   1.00
C4       0.64415    0.91512    0.41515   1.00
C4       0.68585    0.91488    0.41485   1.00
C3a      0.62246    0.91442    0.45073   1.00
C3       0.70732    0.94930    0.42182   1.00
C3       0.62268    0.91620    0.38005   1.00
C3a      0.70754    0.88008    0.40741   1.00
C2       0.55988    0.91507    0.41495   1.00
C2       0.77012    0.91506    0.41495   1.00
C3       0.58095    0.91432    0.45005   1.00
C3       0.74863    0.94932    0.42197   1.00
C3       0.58137    0.91605    0.37999   1.00
C3       0.74905    0.88072    0.40765   1.00
C5       0.64272    0.91313    0.48994   1.00
H1       0.69191    0.97629    0.42757   1.00
H1       0.56479    0.91358    0.47716   1.00
H1       0.76401    0.97631    0.42767   1.00
H1       0.56599    0.91667    0.35242   1.00
H1       0.76521    0.85416    0.40218   1.00
C5       0.68728    0.84161    0.39970   1.00
H1       0.63809    0.91676    0.35246   1.00
H2       0.70756    0.81709    0.40580   1.00
H2       0.66231    0.83784    0.42001   1.00
H2       0.62244    0.90159    0.51243   1.00
H2       0.66769    0.89250    0.48897   1.00
N1       0.67357    0.83934    0.35932   1.00
C6       0.69573    0.83808    0.32727   1.00
C6       0.63654    0.83701    0.34751   1.00
C6       0.67259    0.83544    0.29454   1.00
C6       0.63495    0.83475    0.30741   1.00
H3       0.72697    0.83935    0.32748   1.00
H3       0.61200    0.83726    0.36683   1.00
H3       0.68213    0.83413    0.26463   1.00
H3       0.60925    0.83285    0.28955   1.00
N1       0.65643    0.95192    0.50138   1.00
C6       0.69346    0.96289    0.50634   1.00
C6       0.63427    0.98284    0.50992   1.00
C6       0.69505    1.00141    0.51770   1.00
C6       0.65741    1.01410    0.51997   1.00
H3       0.71800    0.94414    0.50169   1.00
H3       0.60303    0.98293    0.50864   1.00
H3       0.72075    1.01837    0.52364   1.00
H3       0.64787    1.04292    0.52809   1.00
C4       0.41485    0.68585    0.41512   1.00
C4       0.41515    0.64415    0.41488   1.00
C3a      0.37927    0.70754    0.41442   1.00
C3       0.40818    0.62268    0.44930   1.00
C3       0.44995    0.70732    0.41620   1.00
C3a      0.42259    0.62246    0.38008   1.00
C2       0.41505    0.77012    0.41507   1.00
C2       0.41505    0.55988    0.41506   1.00
C3       0.37995    0.74905    0.41432   1.00
C3       0.40803    0.58137    0.44932   1.00
C3       0.45001    0.74863    0.41605   1.00
C3       0.42235    0.58095    0.38072   1.00
C5       0.34006    0.68728    0.41313   1.00
H1       0.40243    0.63809    0.47629   1.00
H1       0.35284    0.76521    0.41358   1.00
H1       0.40233    0.56599    0.47631   1.00
H1       0.47758    0.76401    0.41667   1.00
H1       0.42782    0.56479    0.35416   1.00
C5       0.43030    0.64272    0.34161   1.00
H1       0.47754    0.69191    0.41676   1.00
H2       0.42420    0.62244    0.31709   1.00
H2       0.40999    0.66769    0.33784   1.00
H2       0.31757    0.70756    0.40159   1.00
H2       0.34103    0.66231    0.39250   1.00
N1       0.47068    0.65643    0.33934   1.00
C6       0.50273    0.63427    0.33808   1.00
C6       0.48249    0.69346    0.33701   1.00
C6       0.53546    0.65741    0.33544   1.00
C6       0.52259    0.69505    0.33475   1.00
H3       0.50252    0.60303    0.33935   1.00
H3       0.46317    0.71800    0.33726   1.00
H3       0.56537    0.64787    0.33413   1.00
H3       0.54045    0.72075    0.33285   1.00
N1       0.32862    0.67357    0.45192   1.00
C6       0.32366    0.63654    0.46289   1.00
C6       0.32008    0.69573    0.48284   1.00
C6       0.31230    0.63495    0.50141   1.00
C6       0.31003    0.67259    0.51410   1.00
H3       0.32831    0.61200    0.44414   1.00
H3       0.32136    0.72697    0.48293   1.00
H3       0.30636    0.60925    0.51837   1.00
H3       0.30191    0.68213    0.54292   1.00
C4       0.41512    0.91485    0.18585   1.00
C4       0.41488    0.91515    0.14415   1.00
C3a      0.41442    0.87927    0.20754   1.00
C3       0.44930    0.90818    0.12268   1.00
C3       0.41620    0.94995    0.20732   1.00
C3a      0.38008    0.92259    0.12246   1.00
C2       0.41507    0.91505    0.27012   1.00
C2       0.41506    0.91505    0.05988   1.00
C3       0.41432    0.87995    0.24905   1.00
C3       0.44932    0.90803    0.08137   1.00
C3       0.41605    0.95001    0.24863   1.00
C3       0.38072    0.92235    0.08095   1.00
C5       0.41313    0.84006    0.18728   1.00
H1       0.47629    0.90243    0.13809   1.00
H1       0.41358    0.85284    0.26521   1.00
H1       0.47631    0.90233    0.06599   1.00
H1       0.41667    0.97758    0.26401   1.00
H1       0.35416    0.92782    0.06479   1.00
C5       0.34161    0.93030    0.14272   1.00
H1       0.41676    0.97754    0.19191   1.00
H2       0.31709    0.92420    0.12244   1.00
H2       0.33784    0.90999    0.16769   1.00
H2       0.40159    0.81757    0.20756   1.00
H2       0.39250    0.84103    0.16231   1.00
N1       0.33934    0.97068    0.15643   1.00
C6       0.33808    1.00273    0.13427   1.00
C6       0.33701    0.98249    0.19346   1.00
C6       0.33544    1.03546    0.15741   1.00
C6       0.33475    1.02259    0.19505   1.00
H3       0.33935    1.00252    0.10303   1.00
H3       0.33726    0.96317    0.21800   1.00
H3       0.33413    1.06537    0.14787   1.00
H3       0.33285    1.04045    0.22075   1.00
N1       0.45192    0.82862    0.17357   1.00
C6       0.46289    0.82366    0.13654   1.00
C6       0.48284    0.82008    0.19573   1.00
C6       0.50141    0.81230    0.13495   1.00
C6       0.51410    0.81003    0.17259   1.00
H3       0.44414    0.82831    0.11200   1.00
H3       0.48293    0.82136    0.22697   1.00
H3       0.51837    0.80636    0.10925   1.00
H3       0.54292    0.80191    0.18213   1.00
C4       0.91512    0.41515    0.64415   1.00
C4       0.91488    0.41485    0.68585   1.00
C3a      0.91442    0.45073    0.62246   1.00
C3       0.94930    0.42182    0.70732   1.00
C3       0.91620    0.38005    0.62268   1.00
C3a      0.88008    0.40741    0.70754   1.00
C2       0.91507    0.41495    0.55988   1.00
C2       0.91506    0.41495    0.77012   1.00
C3       0.91432    0.45005    0.58095   1.00
C3       0.94932    0.42197    0.74863   1.00
C3       0.91605    0.37999    0.58137   1.00
C3       0.88072    0.40765    0.74905   1.00
C5       0.91313    0.48994    0.64272   1.00
H1       0.97629    0.42757    0.69191   1.00
H1       0.91358    0.47716    0.56479   1.00
H1       0.97631    0.42767    0.76401   1.00
H1       0.91667    0.35242    0.56599   1.00
H1       0.85416    0.40218    0.76521   1.00
C5       0.84161    0.39970    0.68728   1.00
H1       0.91676    0.35246    0.63809   1.00
H2       0.81709    0.40580    0.70756   1.00
H2       0.83784    0.42001    0.66231   1.00
H2       0.90159    0.51243    0.62244   1.00
H2       0.89250    0.48897    0.66769   1.00
N1       0.83934    0.35932    0.67357   1.00
C6       0.83808    0.32727    0.69573   1.00
C6       0.83701    0.34751    0.63654   1.00
C6       0.83544    0.29454    0.67259   1.00
C6       0.83475    0.30741    0.63495   1.00
H3       0.83935    0.32748    0.72697   1.00
H3       0.83726    0.36683    0.61200   1.00
H3       0.83413    0.26463    0.68213   1.00
H3       0.83285    0.28955    0.60925   1.00
N1       0.95192    0.50138    0.65643   1.00
C6       0.96289    0.50634    0.69346   1.00
C6       0.98284    0.50992    0.63427   1.00
C6       1.00141    0.51770    0.69505   1.00
C6       1.01410    0.51997    0.65741   1.00
H3       0.94414    0.50169    0.71800   1.00
H3       0.98293    0.50864    0.60303   1.00
H3       1.01837    0.52364    0.72075   1.00
H3       1.04292    0.52809    0.64787   1.00
C4       0.91515    0.64415    0.41512   1.00
C4       0.91485    0.68585    0.41488   1.00
C3a      0.95073    0.62246    0.41442   1.00
C3       0.92182    0.70732    0.44930   1.00
C3       0.88005    0.62268    0.41620   1.00
C3a      0.90741    0.70754    0.38008   1.00
C2       0.91495    0.55988    0.41507   1.00
C2       0.91495    0.77012    0.41506   1.00
C3       0.95005    0.58095    0.41432   1.00
C3       0.92197    0.74863    0.44932   1.00
C3       0.87999    0.58137    0.41605   1.00
C3       0.90765    0.74905    0.38072   1.00
C5       0.98994    0.64272    0.41313   1.00
H1       0.92757    0.69191    0.47629   1.00
H1       0.97716    0.56479    0.41358   1.00
H1       0.92767    0.76401    0.47631   1.00
H1       0.85242    0.56599    0.41667   1.00
H1       0.90218    0.76521    0.35416   1.00
C5       0.89970    0.68728    0.34161   1.00
H1       0.85246    0.63809    0.41676   1.00
H2       0.90580    0.70756    0.31709   1.00
H2       0.92001    0.66231    0.33784   1.00
H2       1.01243    0.62244    0.40159   1.00
H2       0.98897    0.66769    0.39250   1.00
N1       0.85932    0.67357    0.33934   1.00
C6       0.82727    0.69573    0.33808   1.00
C6       0.84751    0.63654    0.33701   1.00
C6       0.79454    0.67259    0.33544   1.00
C6       0.80741    0.63495    0.33475   1.00
H3       0.82748    0.72697    0.33935   1.00
H3       0.86683    0.61200    0.33726   1.00
H3       0.76463    0.68213    0.33413   1.00
H3       0.78955    0.60925    0.33285   1.00
N1       1.00138    0.65643    0.45192   1.00
C6       1.00634    0.69346    0.46289   1.00
C6       1.00992    0.63427    0.48284   1.00
C6       1.01770    0.69505    0.50141   1.00
C6       1.01997    0.65741    0.51410   1.00
H3       1.00169    0.71800    0.44414   1.00
H3       1.00864    0.60303    0.48293   1.00
H3       1.02364    0.72075    0.51837   1.00
H3       1.02809    0.64787    0.54292   1.00
C4       0.68585    0.41512    0.41485   1.00
C4       0.64415    0.41488    0.41515   1.00
C3a      0.70754    0.41442    0.37927   1.00
C3       0.62268    0.44930    0.40818   1.00
C3       0.70732    0.41620    0.44995   1.00
C3a      0.62246    0.38008    0.42259   1.00
C2       0.77012    0.41507    0.41505   1.00
C2       0.55988    0.41506    0.41505   1.00
C3       0.74905    0.41432    0.37995   1.00
C3       0.58137    0.44932    0.40803   1.00
C3       0.74863    0.41605    0.45001   1.00
C3       0.58095    0.38072    0.42235   1.00
C5       0.68728    0.41313    0.34006   1.00
H1       0.63809    0.47629    0.40243   1.00
H1       0.76521    0.41358    0.35284   1.00
H1       0.56599    0.47631    0.40233   1.00
H1       0.76401    0.41667    0.47758   1.00
H1       0.56479    0.35416    0.42782   1.00
C5       0.64272    0.34161    0.43030   1.00
H1       0.69191    0.41676    0.47754   1.00
H2       0.62244    0.31709    0.42420   1.00
H2       0.66769    0.33784    0.40999   1.00
H2       0.70756    0.40159    0.31757   1.00
H2       0.66231    0.39250    0.34103   1.00
N1       0.65643    0.33934    0.47068   1.00
C6       0.63427    0.33808    0.50273   1.00
C6       0.69346    0.33701    0.48249   1.00
C6       0.65741    0.33544    0.53546   1.00
C6       0.69505    0.33475    0.52259   1.00
H3       0.60303    0.33935    0.50252   1.00
H3       0.71800    0.33726    0.46317   1.00
H3       0.64787    0.33413    0.56537   1.00
H3       0.72075    0.33285    0.54045   1.00
N1       0.67357    0.45192    0.32862   1.00
C6       0.63654    0.46289    0.32366   1.00
C6       0.69573    0.48284    0.32008   1.00
C6       0.63495    0.50141    0.31230   1.00
C6       0.67259    0.51410    0.31003   1.00
H3       0.61200    0.44414    0.32831   1.00
H3       0.72697    0.48293    0.32136   1.00
H3       0.60925    0.51837    0.30636   1.00
H3       0.68213    0.54292    0.30191   1.00
C4       1.14415    0.41512    0.41515   1.00
C4       1.18585    0.41488    0.41485   1.00
C3a      1.12246    0.41442    0.45073   1.00
C3       1.20732    0.44930    0.42182   1.00
C3       1.12268    0.41620    0.38005   1.00
C3a      1.20754    0.38008    0.40741   1.00
C2       1.05988    0.41507    0.41495   1.00
C2       1.27012    0.41506    0.41495   1.00
C3       1.08095    0.41432    0.45005   1.00
C3       1.24863    0.44932    0.42197   1.00
C3       1.08137    0.41605    0.37999   1.00
C3       1.24905    0.38072    0.40765   1.00
C5       1.14272    0.41313    0.48994   1.00
H1       1.19191    0.47629    0.42757   1.00
H1       1.06479    0.41358    0.47716   1.00
H1       1.26401    0.47631    0.42767   1.00
H1       1.06599    0.41667    0.35242   1.00
H1       1.26521    0.35416    0.40218   1.00
C5       1.18728    0.34161    0.39970   1.00
H1       1.13809    0.41676    0.35246   1.00
H2       1.20756    0.31709    0.40580   1.00
H2       1.16231    0.33784    0.42001   1.00
H2       1.12244    0.40159    0.51243   1.00
H2       1.16769    0.39250    0.48897   1.00
N1       1.17357    0.33934    0.35932   1.00
C6       1.19573    0.33808    0.32727   1.00
C6       1.13654    0.33701    0.34751   1.00
C6       1.17259    0.33544    0.29454   1.00
C6       1.13495    0.33475    0.30741   1.00
H3       1.22697    0.33935    0.32748   1.00
H3       1.11200    0.33726    0.36683   1.00
H3       1.18213    0.33413    0.26463   1.00
H3       1.10925    0.33285    0.28955   1.00
N1       1.15643    0.45192    0.50138   1.00
C6       1.19346    0.46289    0.50634   1.00
C6       1.13427    0.48284    0.50992   1.00
C6       1.19505    0.50141    0.51770   1.00
C6       1.15741    0.51410    0.51997   1.00
H3       1.21800    0.44414    0.50169   1.00
H3       1.10303    0.48293    0.50864   1.00
H3       1.22075    0.51837    0.52364   1.00
H3       1.14787    0.54292    0.52809   1.00
C4       0.91485    0.18585    0.41512   1.00
C4       0.91515    0.14415    0.41488   1.00
C3a      0.87927    0.20754    0.41442   1.00
C3       0.90818    0.12268    0.44930   1.00
C3       0.94995    0.20732    0.41620   1.00
C3a      0.92259    0.12246    0.38008   1.00
C2       0.91505    0.27012    0.41507   1.00
C2       0.91505    0.05988    0.41506   1.00
C3       0.87995    0.24905    0.41432   1.00
C3       0.90803    0.08137    0.44932   1.00
C3       0.95001    0.24863    0.41605   1.00
C3       0.92235    0.08095    0.38072   1.00
C5       0.84006    0.18728    0.41313   1.00
H1       0.90243    0.13809    0.47629   1.00
H1       0.85284    0.26521    0.41358   1.00
H1       0.90233    0.06599    0.47631   1.00
H1       0.97758    0.26401    0.41667   1.00
H1       0.92782    0.06479    0.35416   1.00
C5       0.93030    0.14272    0.34161   1.00
H1       0.97754    0.19191    0.41676   1.00
H2       0.92420    0.12244    0.31709   1.00
H2       0.90999    0.16769    0.33784   1.00
H2       0.81757    0.20756    0.40159   1.00
H2       0.84103    0.16231    0.39250   1.00
N1       0.97068    0.15643    0.33934   1.00
C6       1.00273    0.13427    0.33808   1.00
C6       0.98249    0.19346    0.33701   1.00
C6       1.03546    0.15741    0.33544   1.00
C6       1.02259    0.19505    0.33475   1.00
H3       1.00252    0.10303    0.33935   1.00
H3       0.96317    0.21800    0.33726   1.00
H3       1.06537    0.14787    0.33413   1.00
H3       1.04045    0.22075    0.33285   1.00
N1       0.82862    0.17357    0.45192   1.00
C6       0.82366    0.13654    0.46289   1.00
C6       0.82008    0.19573    0.48284   1.00
C6       0.81230    0.13495    0.50141   1.00
C6       0.81003    0.17259    0.51410   1.00
H3       0.82831    0.11200    0.44414   1.00
H3       0.82136    0.22697    0.48293   1.00
H3       0.80636    0.10925    0.51837   1.00
H3       0.80191    0.18213    0.54292   1.00
C4       0.91512    0.41485    0.18585   1.00
C4       0.91488    0.41515    0.14415   1.00
C3a      0.91442    0.37927    0.20754   1.00
C3       0.94930    0.40818    0.12268   1.00
C3       0.91620    0.44995    0.20732   1.00
C3a      0.88008    0.42259    0.12246   1.00
C2       0.91507    0.41505    0.27012   1.00
C2       0.91506    0.41505    0.05988   1.00
C3       0.91432    0.37995    0.24905   1.00
C3       0.94932    0.40803    0.08137   1.00
C3       0.91605    0.45001    0.24863   1.00
C3       0.88072    0.42235    0.08095   1.00
C5       0.91313    0.34006    0.18728   1.00
H1       0.97629    0.40243    0.13809   1.00
H1       0.91358    0.35284    0.26521   1.00
H1       0.97631    0.40233    0.06599   1.00
H1       0.91667    0.47758    0.26401   1.00
H1       0.85416    0.42782    0.06479   1.00
C5       0.84161    0.43030    0.14272   1.00
H1       0.91676    0.47754    0.19191   1.00
H2       0.81709    0.42420    0.12244   1.00
H2       0.83784    0.40999    0.16769   1.00
H2       0.90159    0.31757    0.20756   1.00
H2       0.89250    0.34103    0.16231   1.00
N1       0.83934    0.47068    0.15643   1.00
C6       0.83808    0.50273    0.13427   1.00
C6       0.83701    0.48249    0.19346   1.00
C6       0.83544    0.53546    0.15741   1.00
C6       0.83475    0.52259    0.19505   1.00
H3       0.83935    0.50252    0.10303   1.00
H3       0.83726    0.46317    0.21800   1.00
H3       0.83413    0.56537    0.14787   1.00
H3       0.83285    0.54045    0.22075   1.00
N1       0.95192    0.32862    0.17357   1.00
C6       0.96289    0.32366    0.13654   1.00
C6       0.98284    0.32008    0.19573   1.00
C6       1.00141    0.31230    0.13495   1.00
C6       1.01410    0.31003    0.17259   1.00
H3       0.94414    0.32831    0.11200   1.00
H3       0.98293    0.32136    0.22697   1.00
H3       1.01837    0.30636    0.10925   1.00
H3       1.04292    0.30191    0.18213   1.00
