data_IRMOF10_SG202_interpen_Ligand9cp_label_b.

_audit_creation_method             'generated by an auxiliary program of Tobunporous'

_symmetry_space_group_name_H-M     'P 1'
_symmetry_Int_Tables_number        1
_symmetry_cell_setting             triclinic

_cell_length_a                    34.2800
_cell_length_b                    34.2800
_cell_length_c                    34.2800
_cell_angle_alpha                 90.0000
_cell_angle_beta                  90.0000
_cell_angle_gamma                 90.0000

loop_
_atom_site_label
_atom_site_fract_x
_atom_site_fract_y
_atom_site_fract_z
_atom_site_occupancy
O1       0.75000    0.75000    0.75000   1.00
Zn1      0.71720    0.78280    0.78280   1.00
Zn1      0.78280    0.71720    0.78280   1.00
Zn1      0.78280    0.78280    0.71720   1.00
Zn1      0.71720    0.71720    0.71720   1.00
O2       0.72650    0.77350    0.83820   1.00
O2       0.72650    0.83820    0.77350   1.00
O2       0.66180    0.77350    0.77350   1.00
O2       0.77350    0.72650    0.83820   1.00
O2       0.83820    0.72650    0.77350   1.00
O2       0.77350    0.66180    0.77350   1.00
O2       0.77350    0.83820    0.72650   1.00
O2       0.83820    0.77350    0.72650   1.00
O2       0.77350    0.77350    0.66180   1.00
O2       0.66180    0.72650    0.72650   1.00
O2       0.72650    0.66180    0.72650   1.00
O2       0.72650    0.72650    0.66180   1.00
C1       0.75000    0.75000    0.85520   1.00
C1       0.75000    0.85520    0.75000   1.00
C1       0.64480    0.75000    0.75000   1.00
C1       0.85520    0.75000    0.75000   1.00
C1       0.75000    0.64480    0.75000   1.00
C1       0.75000    0.75000    0.64480   1.00
O1       0.25000    0.25000    0.75000   1.00
Zn1      0.21720    0.28280    0.78280   1.00
Zn1      0.28280    0.21720    0.78280   1.00
Zn1      0.28280    0.28280    0.71720   1.00
Zn1      0.21720    0.21720    0.71720   1.00
O2       0.22650    0.27350    0.83820   1.00
O2       0.22650    0.33820    0.77350   1.00
O2       0.16180    0.27350    0.77350   1.00
O2       0.27350    0.22650    0.83820   1.00
O2       0.33820    0.22650    0.77350   1.00
O2       0.27350    0.16180    0.77350   1.00
O2       0.27350    0.33820    0.72650   1.00
O2       0.33820    0.27350    0.72650   1.00
O2       0.27350    0.27350    0.66180   1.00
O2       0.16180    0.22650    0.72650   1.00
O2       0.22650    0.16180    0.72650   1.00
O2       0.22650    0.22650    0.66180   1.00
C1       0.25000    0.25000    0.85520   1.00
C1       0.25000    0.35520    0.75000   1.00
C1       0.14480    0.25000    0.75000   1.00
C1       0.35520    0.25000    0.75000   1.00
C1       0.25000    0.14480    0.75000   1.00
C1       0.25000    0.25000    0.64480   1.00
O1       0.25000    0.75000    0.25000   1.00
Zn1      0.21720    0.78280    0.28280   1.00
Zn1      0.28280    0.71720    0.28280   1.00
Zn1      0.28280    0.78280    0.21720   1.00
Zn1      0.21720    0.71720    0.21720   1.00
O2       0.22650    0.77350    0.33820   1.00
O2       0.22650    0.83820    0.27350   1.00
O2       0.16180    0.77350    0.27350   1.00
O2       0.27350    0.72650    0.33820   1.00
O2       0.33820    0.72650    0.27350   1.00
O2       0.27350    0.66180    0.27350   1.00
O2       0.27350    0.83820    0.22650   1.00
O2       0.33820    0.77350    0.22650   1.00
O2       0.27350    0.77350    0.16180   1.00
O2       0.16180    0.72650    0.22650   1.00
O2       0.22650    0.66180    0.22650   1.00
O2       0.22650    0.72650    0.16180   1.00
C1       0.25000    0.75000    0.35520   1.00
C1       0.25000    0.85520    0.25000   1.00
C1       0.14480    0.75000    0.25000   1.00
C1       0.35520    0.75000    0.25000   1.00
C1       0.25000    0.64480    0.25000   1.00
C1       0.25000    0.75000    0.14480   1.00
O1       0.75000    0.25000    0.25000   1.00
Zn1      0.71720    0.28280    0.28280   1.00
Zn1      0.78280    0.21720    0.28280   1.00
Zn1      0.78280    0.28280    0.21720   1.00
Zn1      0.71720    0.21720    0.21720   1.00
O2       0.72650    0.27350    0.33820   1.00
O2       0.72650    0.33820    0.27350   1.00
O2       0.66180    0.27350    0.27350   1.00
O2       0.77350    0.22650    0.33820   1.00
O2       0.83820    0.22650    0.27350   1.00
O2       0.77350    0.16180    0.27350   1.00
O2       0.77350    0.33820    0.22650   1.00
O2       0.83820    0.27350    0.22650   1.00
O2       0.77350    0.27350    0.16180   1.00
O2       0.66180    0.22650    0.22650   1.00
O2       0.72650    0.16180    0.22650   1.00
O2       0.72650    0.22650    0.16180   1.00
C1       0.75000    0.25000    0.35520   1.00
C1       0.75000    0.35520    0.25000   1.00
C1       0.64480    0.25000    0.25000   1.00
C1       0.85520    0.25000    0.25000   1.00
C1       0.75000    0.14480    0.25000   1.00
C1       0.75000    0.25000    0.14480   1.00
O1       0.25000    0.25000    0.25000   1.00
Zn1      0.28280    0.21720    0.21720   1.00
Zn1      0.21720    0.28280    0.21720   1.00
Zn1      0.21720    0.21720    0.28280   1.00
Zn1      0.28280    0.28280    0.28280   1.00
O2       0.27350    0.22650    0.16180   1.00
O2       0.27350    0.16180    0.22650   1.00
O2       0.33820    0.22650    0.22650   1.00
O2       0.22650    0.27350    0.16180   1.00
O2       0.16180    0.27350    0.22650   1.00
O2       0.22650    0.33820    0.22650   1.00
O2       0.22650    0.16180    0.27350   1.00
O2       0.16180    0.22650    0.27350   1.00
O2       0.22650    0.22650    0.33820   1.00
O2       0.33820    0.27350    0.27350   1.00
O2       0.27350    0.33820    0.27350   1.00
O2       0.27350    0.27350    0.33820   1.00
C1       0.25000    0.25000    0.14480   1.00
C1       0.25000    0.14480    0.25000   1.00
C1       0.35520    0.25000    0.25000   1.00
C1       0.14480    0.25000    0.25000   1.00
C1       0.25000    0.35520    0.25000   1.00
C1       0.25000    0.25000    0.35520   1.00
O1       0.75000    0.75000    0.25000   1.00
Zn1      0.78280    0.71720    0.21720   1.00
Zn1      0.71720    0.78280    0.21720   1.00
Zn1      0.71720    0.71720    0.28280   1.00
Zn1      0.78280    0.78280    0.28280   1.00
O2       0.77350    0.72650    0.16180   1.00
O2       0.77350    0.66180    0.22650   1.00
O2       0.83820    0.72650    0.22650   1.00
O2       0.72650    0.77350    0.16180   1.00
O2       0.66180    0.77350    0.22650   1.00
O2       0.72650    0.83820    0.22650   1.00
O2       0.72650    0.66180    0.27350   1.00
O2       0.66180    0.72650    0.27350   1.00
O2       0.72650    0.72650    0.33820   1.00
O2       0.83820    0.77350    0.27350   1.00
O2       0.77350    0.83820    0.27350   1.00
O2       0.77350    0.77350    0.33820   1.00
C1       0.75000    0.75000    0.14480   1.00
C1       0.75000    0.64480    0.25000   1.00
C1       0.85520    0.75000    0.25000   1.00
C1       0.64480    0.75000    0.25000   1.00
C1       0.75000    0.85520    0.25000   1.00
C1       0.75000    0.75000    0.35520   1.00
O1       0.75000    0.25000    0.75000   1.00
Zn1      0.78280    0.21720    0.71720   1.00
Zn1      0.71720    0.28280    0.71720   1.00
Zn1      0.71720    0.21720    0.78280   1.00
Zn1      0.78280    0.28280    0.78280   1.00
O2       0.77350    0.22650    0.66180   1.00
O2       0.77350    0.16180    0.72650   1.00
O2       0.83820    0.22650    0.72650   1.00
O2       0.72650    0.27350    0.66180   1.00
O2       0.66180    0.27350    0.72650   1.00
O2       0.72650    0.33820    0.72650   1.00
O2       0.72650    0.16180    0.77350   1.00
O2       0.66180    0.22650    0.77350   1.00
O2       0.72650    0.22650    0.83820   1.00
O2       0.83820    0.27350    0.77350   1.00
O2       0.77350    0.33820    0.77350   1.00
O2       0.77350    0.27350    0.83820   1.00
C1       0.75000    0.25000    0.64480   1.00
C1       0.75000    0.14480    0.75000   1.00
C1       0.85520    0.25000    0.75000   1.00
C1       0.64480    0.25000    0.75000   1.00
C1       0.75000    0.35520    0.75000   1.00
C1       0.75000    0.25000    0.85520   1.00
O1       0.25000    0.75000    0.75000   1.00
Zn1      0.28280    0.71720    0.71720   1.00
Zn1      0.21720    0.78280    0.71720   1.00
Zn1      0.21720    0.71720    0.78280   1.00
Zn1      0.28280    0.78280    0.78280   1.00
O2       0.27350    0.72650    0.66180   1.00
O2       0.27350    0.66180    0.72650   1.00
O2       0.33820    0.72650    0.72650   1.00
O2       0.22650    0.77350    0.66180   1.00
O2       0.16180    0.77350    0.72650   1.00
O2       0.22650    0.83820    0.72650   1.00
O2       0.22650    0.66180    0.77350   1.00
O2       0.16180    0.72650    0.77350   1.00
O2       0.22650    0.72650    0.83820   1.00
O2       0.33820    0.77350    0.77350   1.00
O2       0.27350    0.83820    0.77350   1.00
O2       0.27350    0.77350    0.83820   1.00
C1       0.25000    0.75000    0.64480   1.00
C1       0.25000    0.64480    0.75000   1.00
C1       0.35520    0.75000    0.75000   1.00
C1       0.14480    0.75000    0.75000   1.00
C1       0.25000    0.85520    0.75000   1.00
C1       0.25000    0.75000    0.85520   1.00
O1       0.91500    0.91500    0.91500   1.00
Zn1      0.88220    0.94780    0.94780   1.00
Zn1      0.94780    0.88220    0.94780   1.00
Zn1      0.94780    0.94780    0.88220   1.00
Zn1      0.88220    0.88220    0.88220   1.00
O2       0.89150    0.93850    1.00320   1.00
O2       0.89150    1.00320    0.93850   1.00
O2       0.82680    0.93850    0.93850   1.00
O2       0.93850    0.89150    1.00320   1.00
O2       1.00320    0.89150    0.93850   1.00
O2       0.93850    0.82680    0.93850   1.00
O2       0.93850    1.00320    0.89150   1.00
O2       1.00320    0.93850    0.89150   1.00
O2       0.93850    0.93850    0.82680   1.00
O2       0.82680    0.89150    0.89150   1.00
O2       0.89150    0.82680    0.89150   1.00
O2       0.89150    0.89150    0.82680   1.00
C1       0.91500    0.91500    1.02020   1.00
C1       0.91500    1.02020    0.91500   1.00
C1       0.80980    0.91500    0.91500   1.00
C1       1.02020    0.91500    0.91500   1.00
C1       0.91500    0.80980    0.91500   1.00
C1       0.91500    0.91500    0.80980   1.00
O1       0.41500    0.41500    0.91500   1.00
Zn1      0.38220    0.44780    0.94780   1.00
Zn1      0.44780    0.38220    0.94780   1.00
Zn1      0.44780    0.44780    0.88220   1.00
Zn1      0.38220    0.38220    0.88220   1.00
O2       0.39150    0.43850    1.00320   1.00
O2       0.39150    0.50320    0.93850   1.00
O2       0.32680    0.43850    0.93850   1.00
O2       0.43850    0.39150    1.00320   1.00
O2       0.50320    0.39150    0.93850   1.00
O2       0.43850    0.32680    0.93850   1.00
O2       0.43850    0.50320    0.89150   1.00
O2       0.50320    0.43850    0.89150   1.00
O2       0.43850    0.43850    0.82680   1.00
O2       0.32680    0.39150    0.89150   1.00
O2       0.39150    0.32680    0.89150   1.00
O2       0.39150    0.39150    0.82680   1.00
C1       0.41500    0.41500    1.02020   1.00
C1       0.41500    0.52020    0.91500   1.00
C1       0.30980    0.41500    0.91500   1.00
C1       0.52020    0.41500    0.91500   1.00
C1       0.41500    0.30980    0.91500   1.00
C1       0.41500    0.41500    0.80980   1.00
O1       0.41500    0.91500    0.41500   1.00
Zn1      0.38220    0.94780    0.44780   1.00
Zn1      0.44780    0.88220    0.44780   1.00
Zn1      0.44780    0.94780    0.38220   1.00
Zn1      0.38220    0.88220    0.38220   1.00
O2       0.39150    0.93850    0.50320   1.00
O2       0.39150    1.00320    0.43850   1.00
O2       0.32680    0.93850    0.43850   1.00
O2       0.43850    0.89150    0.50320   1.00
O2       0.50320    0.89150    0.43850   1.00
O2       0.43850    0.82680    0.43850   1.00
O2       0.43850    1.00320    0.39150   1.00
O2       0.50320    0.93850    0.39150   1.00
O2       0.43850    0.93850    0.32680   1.00
O2       0.32680    0.89150    0.39150   1.00
O2       0.39150    0.82680    0.39150   1.00
O2       0.39150    0.89150    0.32680   1.00
C1       0.41500    0.91500    0.52020   1.00
C1       0.41500    1.02020    0.41500   1.00
C1       0.30980    0.91500    0.41500   1.00
C1       0.52020    0.91500    0.41500   1.00
C1       0.41500    0.80980    0.41500   1.00
C1       0.41500    0.91500    0.30980   1.00
O1       0.91500    0.41500    0.41500   1.00
Zn1      0.88220    0.44780    0.44780   1.00
Zn1      0.94780    0.38220    0.44780   1.00
Zn1      0.94780    0.44780    0.38220   1.00
Zn1      0.88220    0.38220    0.38220   1.00
O2       0.89150    0.43850    0.50320   1.00
O2       0.89150    0.50320    0.43850   1.00
O2       0.82680    0.43850    0.43850   1.00
O2       0.93850    0.39150    0.50320   1.00
O2       1.00320    0.39150    0.43850   1.00
O2       0.93850    0.32680    0.43850   1.00
O2       0.93850    0.50320    0.39150   1.00
O2       1.00320    0.43850    0.39150   1.00
O2       0.93850    0.43850    0.32680   1.00
O2       0.82680    0.39150    0.39150   1.00
O2       0.89150    0.32680    0.39150   1.00
O2       0.89150    0.39150    0.32680   1.00
C1       0.91500    0.41500    0.52020   1.00
C1       0.91500    0.52020    0.41500   1.00
C1       0.80980    0.41500    0.41500   1.00
C1       1.02020    0.41500    0.41500   1.00
C1       0.91500    0.30980    0.41500   1.00
C1       0.91500    0.41500    0.30980   1.00
O1       0.41500    0.41500    0.41500   1.00
Zn1      0.44780    0.38220    0.38220   1.00
Zn1      0.38220    0.44780    0.38220   1.00
Zn1      0.38220    0.38220    0.44780   1.00
Zn1      0.44780    0.44780    0.44780   1.00
O2       0.43850    0.39150    0.32680   1.00
O2       0.43850    0.32680    0.39150   1.00
O2       0.50320    0.39150    0.39150   1.00
O2       0.39150    0.43850    0.32680   1.00
O2       0.32680    0.43850    0.39150   1.00
O2       0.39150    0.50320    0.39150   1.00
O2       0.39150    0.32680    0.43850   1.00
O2       0.32680    0.39150    0.43850   1.00
O2       0.39150    0.39150    0.50320   1.00
O2       0.50320    0.43850    0.43850   1.00
O2       0.43850    0.50320    0.43850   1.00
O2       0.43850    0.43850    0.50320   1.00
C1       0.41500    0.41500    0.30980   1.00
C1       0.41500    0.30980    0.41500   1.00
C1       0.52020    0.41500    0.41500   1.00
C1       0.30980    0.41500    0.41500   1.00
C1       0.41500    0.52020    0.41500   1.00
C1       0.41500    0.41500    0.52020   1.00
O1       0.91500    0.91500    0.41500   1.00
Zn1      0.94780    0.88220    0.38220   1.00
Zn1      0.88220    0.94780    0.38220   1.00
Zn1      0.88220    0.88220    0.44780   1.00
Zn1      0.94780    0.94780    0.44780   1.00
O2       0.93850    0.89150    0.32680   1.00
O2       0.93850    0.82680    0.39150   1.00
O2       1.00320    0.89150    0.39150   1.00
O2       0.89150    0.93850    0.32680   1.00
O2       0.82680    0.93850    0.39150   1.00
O2       0.89150    1.00320    0.39150   1.00
O2       0.89150    0.82680    0.43850   1.00
O2       0.82680    0.89150    0.43850   1.00
O2       0.89150    0.89150    0.50320   1.00
O2       1.00320    0.93850    0.43850   1.00
O2       0.93850    1.00320    0.43850   1.00
O2       0.93850    0.93850    0.50320   1.00
C1       0.91500    0.91500    0.30980   1.00
C1       0.91500    0.80980    0.41500   1.00
C1       1.02020    0.91500    0.41500   1.00
C1       0.80980    0.91500    0.41500   1.00
C1       0.91500    1.02020    0.41500   1.00
C1       0.91500    0.91500    0.52020   1.00
O1       0.91500    0.41500    0.91500   1.00
Zn1      0.94780    0.38220    0.88220   1.00
Zn1      0.88220    0.44780    0.88220   1.00
Zn1      0.88220    0.38220    0.94780   1.00
Zn1      0.94780    0.44780    0.94780   1.00
O2       0.93850    0.39150    0.82680   1.00
O2       0.93850    0.32680    0.89150   1.00
O2       1.00320    0.39150    0.89150   1.00
O2       0.89150    0.43850    0.82680   1.00
O2       0.82680    0.43850    0.89150   1.00
O2       0.89150    0.50320    0.89150   1.00
O2       0.89150    0.32680    0.93850   1.00
O2       0.82680    0.39150    0.93850   1.00
O2       0.89150    0.39150    1.00320   1.00
O2       1.00320    0.43850    0.93850   1.00
O2       0.93850    0.50320    0.93850   1.00
O2       0.93850    0.43850    1.00320   1.00
C1       0.91500    0.41500    0.80980   1.00
C1       0.91500    0.30980    0.91500   1.00
C1       1.02020    0.41500    0.91500   1.00
C1       0.80980    0.41500    0.91500   1.00
C1       0.91500    0.52020    0.91500   1.00
C1       0.91500    0.41500    1.02020   1.00
O1       0.41500    0.91500    0.91500   1.00
Zn1      0.44780    0.88220    0.88220   1.00
Zn1      0.38220    0.94780    0.88220   1.00
Zn1      0.38220    0.88220    0.94780   1.00
Zn1      0.44780    0.94780    0.94780   1.00
O2       0.43850    0.89150    0.82680   1.00
O2       0.43850    0.82680    0.89150   1.00
O2       0.50320    0.89150    0.89150   1.00
O2       0.39150    0.93850    0.82680   1.00
O2       0.32680    0.93850    0.89150   1.00
O2       0.39150    1.00320    0.89150   1.00
O2       0.39150    0.82680    0.93850   1.00
O2       0.32680    0.89150    0.93850   1.00
O2       0.39150    0.89150    1.00320   1.00
O2       0.50320    0.93850    0.93850   1.00
O2       0.43850    1.00320    0.93850   1.00
O2       0.43850    0.93850    1.00320   1.00
C1       0.41500    0.91500    0.80980   1.00
C1       0.41500    0.80980    0.91500   1.00
C1       0.52020    0.91500    0.91500   1.00
C1       0.30980    0.91500    0.91500   1.00
C1       0.41500    1.02020    0.91500   1.00
C1       0.41500    0.91500    1.02020   1.00
C4       0.75032    0.75070    0.97917   1.00
C4       0.74968    0.74930    1.02083   1.00
C3       0.78005    0.77058    0.95846   1.00
C3       0.78406    0.74469    1.04321   1.00
C3       0.72168    0.73142    0.95643   1.00
C3       0.71437    0.75346    1.04187   1.00
C2       0.75247    0.75180    0.89487   1.00
C2       0.74783    0.74831    1.10514   1.00
C3       0.78100    0.77111    0.91715   1.00
C3       0.78307    0.74416    1.08449   1.00
C3       0.72280    0.73202    0.91514   1.00
C3a      0.71325    0.75294    1.08328   1.00
H1       0.80254    0.78615    0.97425   1.00
H1       0.81190    0.74099    1.02875   1.00
H1       0.80417    0.78670    0.90240   1.00
H1       0.81001    0.74039    1.10056   1.00
H1       0.70048    0.71674    0.89882   1.00
C5       0.67471    0.75777    1.10380   1.00
H1       0.68725    0.75741    1.02622   1.00
H1       0.69865    0.71507    0.97059   1.00
H2       0.67835    0.75604    1.13599   1.00
H2       0.66302    0.78727    1.09705   1.00
N1       0.64716    0.72766    1.09125   1.00
C6       0.65130    0.68894    1.09644   1.00
C6       0.61293    0.73355    1.07288   1.00
C6       0.61945    0.66978    1.08102   1.00
C6       0.59504    0.69816    1.06604   1.00
H3       0.67610    0.67528    1.11049   1.00
H3       0.60147    0.76186    1.06484   1.00
H3       0.61455    0.63862    1.08076   1.00
H3       0.56728    0.69354    1.05180   1.00
C4       0.75070    0.97917    0.75032   1.00
C4       0.74930    1.02083    0.74968   1.00
C3       0.77058    0.95846    0.78005   1.00
C3       0.74469    1.04321    0.78406   1.00
C3       0.73142    0.95643    0.72168   1.00
C3       0.75346    1.04187    0.71437   1.00
C2       0.75180    0.89487    0.75247   1.00
C2       0.74831    1.10514    0.74783   1.00
C3       0.77111    0.91715    0.78100   1.00
C3       0.74416    1.08449    0.78307   1.00
C3       0.73202    0.91514    0.72280   1.00
C3a      0.75294    1.08328    0.71325   1.00
H1       0.78615    0.97425    0.80254   1.00
H1       0.74099    1.02875    0.81190   1.00
H1       0.78670    0.90240    0.80417   1.00
H1       0.74039    1.10056    0.81001   1.00
H1       0.71674    0.89882    0.70048   1.00
C5       0.75777    1.10380    0.67471   1.00
H1       0.75741    1.02622    0.68725   1.00
H1       0.71507    0.97059    0.69865   1.00
H2       0.75604    1.13599    0.67835   1.00
H2       0.78727    1.09705    0.66302   1.00
N1       0.72766    1.09125    0.64716   1.00
C6       0.68894    1.09644    0.65130   1.00
C6       0.73355    1.07288    0.61293   1.00
C6       0.66978    1.08102    0.61945   1.00
C6       0.69816    1.06604    0.59504   1.00
H3       0.67528    1.11049    0.67610   1.00
H3       0.76186    1.06484    0.60147   1.00
H3       0.63862    1.08076    0.61455   1.00
H3       0.69354    1.05180    0.56728   1.00
C4       0.52083    0.75032    0.74930   1.00
C4       0.47917    0.74968    0.75070   1.00
C3       0.54154    0.78005    0.72942   1.00
C3       0.45679    0.78406    0.75531   1.00
C3       0.54357    0.72168    0.76858   1.00
C3       0.45813    0.71437    0.74654   1.00
C2       0.60513    0.75247    0.74820   1.00
C2       0.39486    0.74783    0.75169   1.00
C3       0.58285    0.78100    0.72889   1.00
C3       0.41551    0.78307    0.75584   1.00
C3       0.58486    0.72280    0.76798   1.00
C3a      0.41672    0.71325    0.74706   1.00
H1       0.52575    0.80254    0.71385   1.00
H1       0.47125    0.81190    0.75901   1.00
H1       0.59760    0.80417    0.71330   1.00
H1       0.39944    0.81001    0.75961   1.00
H1       0.60118    0.70048    0.78326   1.00
C5       0.39620    0.67471    0.74223   1.00
H1       0.47378    0.68725    0.74259   1.00
H1       0.52941    0.69865    0.78493   1.00
H2       0.36401    0.67835    0.74396   1.00
H2       0.40295    0.66302    0.71273   1.00
N1       0.40875    0.64716    0.77234   1.00
C6       0.40356    0.65130    0.81106   1.00
C6       0.42712    0.61293    0.76645   1.00
C6       0.41898    0.61945    0.83022   1.00
C6       0.43396    0.59504    0.80184   1.00
H3       0.38951    0.67610    0.82472   1.00
H3       0.43516    0.60147    0.73814   1.00
H3       0.41924    0.61455    0.86138   1.00
H3       0.44820    0.56728    0.80646   1.00
C4       0.97917    0.75032    0.75070   1.00
C4       1.02083    0.74968    0.74930   1.00
C3       0.95846    0.78005    0.77058   1.00
C3       1.04321    0.78406    0.74469   1.00
C3       0.95643    0.72168    0.73142   1.00
C3       1.04187    0.71437    0.75346   1.00
C2       0.89487    0.75247    0.75180   1.00
C2       1.10514    0.74783    0.74831   1.00
C3       0.91715    0.78100    0.77111   1.00
C3       1.08449    0.78307    0.74416   1.00
C3       0.91514    0.72280    0.73202   1.00
C3a      1.08328    0.71325    0.75294   1.00
H1       0.97425    0.80254    0.78615   1.00
H1       1.02875    0.81190    0.74099   1.00
H1       0.90240    0.80417    0.78670   1.00
H1       1.10056    0.81001    0.74039   1.00
H1       0.89882    0.70048    0.71674   1.00
C5       1.10380    0.67471    0.75777   1.00
H1       1.02622    0.68725    0.75741   1.00
H1       0.97059    0.69865    0.71507   1.00
H2       1.13599    0.67835    0.75604   1.00
H2       1.09705    0.66302    0.78727   1.00
N1       1.09125    0.64716    0.72766   1.00
C6       1.09644    0.65130    0.68894   1.00
C6       1.07288    0.61293    0.73355   1.00
C6       1.08102    0.61945    0.66978   1.00
C6       1.06604    0.59504    0.69816   1.00
H3       1.11049    0.67610    0.67528   1.00
H3       1.06484    0.60147    0.76186   1.00
H3       1.08076    0.61455    0.63862   1.00
H3       1.05180    0.56728    0.69354   1.00
C4       0.74930    0.52083    0.75032   1.00
C4       0.75070    0.47917    0.74968   1.00
C3       0.72942    0.54154    0.78005   1.00
C3       0.75531    0.45679    0.78406   1.00
C3       0.76858    0.54357    0.72168   1.00
C3       0.74654    0.45813    0.71437   1.00
C2       0.74820    0.60513    0.75247   1.00
C2       0.75169    0.39486    0.74783   1.00
C3       0.72889    0.58285    0.78100   1.00
C3       0.75584    0.41551    0.78307   1.00
C3       0.76798    0.58486    0.72280   1.00
C3a      0.74706    0.41672    0.71325   1.00
H1       0.71385    0.52575    0.80254   1.00
H1       0.75901    0.47125    0.81190   1.00
H1       0.71330    0.59760    0.80417   1.00
H1       0.75961    0.39944    0.81001   1.00
H1       0.78326    0.60118    0.70048   1.00
C5       0.74223    0.39620    0.67471   1.00
H1       0.74259    0.47378    0.68725   1.00
H1       0.78493    0.52941    0.69865   1.00
H2       0.74396    0.36401    0.67835   1.00
H2       0.71273    0.40295    0.66302   1.00
N1       0.77234    0.40875    0.64716   1.00
C6       0.81106    0.40356    0.65130   1.00
C6       0.76645    0.42712    0.61293   1.00
C6       0.83022    0.41898    0.61945   1.00
C6       0.80184    0.43396    0.59504   1.00
H3       0.82472    0.38951    0.67610   1.00
H3       0.73814    0.43516    0.60147   1.00
H3       0.86138    0.41924    0.61455   1.00
H3       0.80646    0.44820    0.56728   1.00
C4       0.75032    0.74930    0.52083   1.00
C4       0.74968    0.75070    0.47917   1.00
C3       0.78005    0.72942    0.54154   1.00
C3       0.78406    0.75531    0.45679   1.00
C3       0.72168    0.76858    0.54357   1.00
C3       0.71437    0.74654    0.45813   1.00
C2       0.75247    0.74820    0.60513   1.00
C2       0.74783    0.75169    0.39486   1.00
C3       0.78100    0.72889    0.58285   1.00
C3       0.78307    0.75584    0.41551   1.00
C3       0.72280    0.76798    0.58486   1.00
C3a      0.71325    0.74706    0.41672   1.00
H1       0.80254    0.71385    0.52575   1.00
H1       0.81190    0.75901    0.47125   1.00
H1       0.80417    0.71330    0.59760   1.00
H1       0.81001    0.75961    0.39944   1.00
H1       0.70048    0.78326    0.60118   1.00
C5       0.67471    0.74223    0.39620   1.00
H1       0.68725    0.74259    0.47378   1.00
H1       0.69865    0.78493    0.52941   1.00
H2       0.67835    0.74396    0.36401   1.00
H2       0.66302    0.71273    0.40295   1.00
N1       0.64716    0.77234    0.40875   1.00
C6       0.65130    0.81106    0.40356   1.00
C6       0.61293    0.76645    0.42712   1.00
C6       0.61945    0.83022    0.41898   1.00
C6       0.59504    0.80184    0.43396   1.00
H3       0.67610    0.82472    0.38951   1.00
H3       0.60147    0.73814    0.43516   1.00
H3       0.61455    0.86138    0.41924   1.00
H3       0.56728    0.80646    0.44820   1.00
C4       0.25032    0.25070    0.97917   1.00
C4       0.24968    0.24930    1.02083   1.00
C3       0.28005    0.27058    0.95846   1.00
C3       0.28406    0.24469    1.04321   1.00
C3       0.22168    0.23142    0.95643   1.00
C3       0.21437    0.25346    1.04187   1.00
C2       0.25247    0.25180    0.89487   1.00
C2       0.24783    0.24831    1.10514   1.00
C3       0.28100    0.27111    0.91715   1.00
C3       0.28307    0.24416    1.08449   1.00
C3       0.22280    0.23202    0.91514   1.00
C3a      0.21325    0.25294    1.08328   1.00
H1       0.30254    0.28615    0.97425   1.00
H1       0.31190    0.24099    1.02875   1.00
H1       0.30417    0.28670    0.90240   1.00
H1       0.31001    0.24039    1.10056   1.00
H1       0.20048    0.21674    0.89882   1.00
C5       0.17471    0.25777    1.10380   1.00
H1       0.18725    0.25741    1.02622   1.00
H1       0.19865    0.21507    0.97059   1.00
H2       0.17835    0.25604    1.13599   1.00
H2       0.16302    0.28727    1.09705   1.00
N1       0.14716    0.22766    1.09125   1.00
C6       0.15130    0.18894    1.09644   1.00
C6       0.11293    0.23355    1.07288   1.00
C6       0.11945    0.16978    1.08102   1.00
C6       0.09504    0.19816    1.06604   1.00
H3       0.17610    0.17528    1.11049   1.00
H3       0.10147    0.26186    1.06484   1.00
H3       0.11455    0.13862    1.08076   1.00
H3       0.06728    0.19354    1.05180   1.00
C4       0.25070    0.47917    0.75032   1.00
C4       0.24930    0.52083    0.74968   1.00
C3       0.27058    0.45846    0.78005   1.00
C3       0.24469    0.54321    0.78406   1.00
C3       0.23142    0.45643    0.72168   1.00
C3       0.25346    0.54187    0.71437   1.00
C2       0.25180    0.39487    0.75247   1.00
C2       0.24831    0.60514    0.74783   1.00
C3       0.27111    0.41715    0.78100   1.00
C3       0.24416    0.58449    0.78307   1.00
C3       0.23202    0.41514    0.72280   1.00
C3a      0.25294    0.58328    0.71325   1.00
H1       0.28615    0.47425    0.80254   1.00
H1       0.24099    0.52875    0.81190   1.00
H1       0.28670    0.40240    0.80417   1.00
H1       0.24039    0.60056    0.81001   1.00
H1       0.21674    0.39882    0.70048   1.00
C5       0.25777    0.60380    0.67471   1.00
H1       0.25741    0.52622    0.68725   1.00
H1       0.21507    0.47059    0.69865   1.00
H2       0.25604    0.63599    0.67835   1.00
H2       0.28727    0.59705    0.66302   1.00
N1       0.22766    0.59125    0.64716   1.00
C6       0.18894    0.59644    0.65130   1.00
C6       0.23355    0.57288    0.61293   1.00
C6       0.16978    0.58102    0.61945   1.00
C6       0.19816    0.56604    0.59504   1.00
H3       0.17528    0.61049    0.67610   1.00
H3       0.26186    0.56484    0.60147   1.00
H3       0.13862    0.58076    0.61455   1.00
H3       0.19354    0.55180    0.56728   1.00
C4       0.02083    0.25032    0.74930   1.00
C4       -0.02083   0.24968    0.75070   1.00
C3       0.04154    0.28005    0.72942   1.00
C3       -0.04321   0.28406    0.75531   1.00
C3       0.04357    0.22168    0.76858   1.00
C3       -0.04187   0.21437    0.74654   1.00
C2       0.10513    0.25247    0.74820   1.00
C2       -0.10514   0.24783    0.75169   1.00
C3       0.08285    0.28100    0.72889   1.00
C3       -0.08449   0.28307    0.75584   1.00
C3       0.08486    0.22280    0.76798   1.00
C3a      -0.08328   0.21325    0.74706   1.00
H1       0.02575    0.30254    0.71385   1.00
H1       -0.02875   0.31190    0.75901   1.00
H1       0.09760    0.30417    0.71330   1.00
H1       -0.10056   0.31001    0.75961   1.00
H1       0.10118    0.20048    0.78326   1.00
C5       -0.10380   0.17471    0.74223   1.00
H1       -0.02622   0.18725    0.74259   1.00
H1       0.02941    0.19865    0.78493   1.00
H2       -0.13599   0.17835    0.74396   1.00
H2       -0.09705   0.16302    0.71273   1.00
N1       -0.09125   0.14716    0.77234   1.00
C6       -0.09644   0.15130    0.81106   1.00
C6       -0.07288   0.11293    0.76645   1.00
C6       -0.08102   0.11945    0.83022   1.00
C6       -0.06604   0.09504    0.80184   1.00
H3       -0.11049   0.17610    0.82472   1.00
H3       -0.06484   0.10147    0.73814   1.00
H3       -0.08076   0.11455    0.86138   1.00
H3       -0.05180   0.06728    0.80646   1.00
C4       0.47917    0.25032    0.75070   1.00
C4       0.52083    0.24968    0.74930   1.00
C3       0.45846    0.28005    0.77058   1.00
C3       0.54321    0.28406    0.74469   1.00
C3       0.45643    0.22168    0.73142   1.00
C3       0.54187    0.21437    0.75346   1.00
C2       0.39487    0.25247    0.75180   1.00
C2       0.60514    0.24783    0.74831   1.00
C3       0.41715    0.28100    0.77111   1.00
C3       0.58449    0.28307    0.74416   1.00
C3       0.41514    0.22280    0.73202   1.00
C3a      0.58328    0.21325    0.75294   1.00
H1       0.47425    0.30254    0.78615   1.00
H1       0.52875    0.31190    0.74099   1.00
H1       0.40240    0.30417    0.78670   1.00
H1       0.60056    0.31001    0.74039   1.00
H1       0.39882    0.20048    0.71674   1.00
C5       0.60380    0.17471    0.75777   1.00
H1       0.52622    0.18725    0.75741   1.00
H1       0.47059    0.19865    0.71507   1.00
H2       0.63599    0.17835    0.75604   1.00
H2       0.59705    0.16302    0.78727   1.00
N1       0.59125    0.14716    0.72766   1.00
C6       0.59644    0.15130    0.68894   1.00
C6       0.57288    0.11293    0.73355   1.00
C6       0.58102    0.11945    0.66978   1.00
C6       0.56604    0.09504    0.69816   1.00
H3       0.61049    0.17610    0.67528   1.00
H3       0.56484    0.10147    0.76186   1.00
H3       0.58076    0.11455    0.63862   1.00
H3       0.55180    0.06728    0.69354   1.00
C4       0.24930    0.02083    0.75032   1.00
C4       0.25070    -0.02083   0.74968   1.00
C3       0.22942    0.04154    0.78005   1.00
C3       0.25531    -0.04321   0.78406   1.00
C3       0.26858    0.04357    0.72168   1.00
C3       0.24654    -0.04187   0.71437   1.00
C2       0.24820    0.10513    0.75247   1.00
C2       0.25169    -0.10514   0.74783   1.00
C3       0.22889    0.08285    0.78100   1.00
C3       0.25584    -0.08449   0.78307   1.00
C3       0.26798    0.08486    0.72280   1.00
C3a      0.24706    -0.08328   0.71325   1.00
H1       0.21385    0.02575    0.80254   1.00
H1       0.25901    -0.02875   0.81190   1.00
H1       0.21330    0.09760    0.80417   1.00
H1       0.25961    -0.10056   0.81001   1.00
H1       0.28326    0.10118    0.70048   1.00
C5       0.24223    -0.10380   0.67471   1.00
H1       0.24259    -0.02622   0.68725   1.00
H1       0.28493    0.02941    0.69865   1.00
H2       0.24396    -0.13599   0.67835   1.00
H2       0.21273    -0.09705   0.66302   1.00
N1       0.27234    -0.09125   0.64716   1.00
C6       0.31106    -0.09644   0.65130   1.00
C6       0.26645    -0.07288   0.61293   1.00
C6       0.33022    -0.08102   0.61945   1.00
C6       0.30184    -0.06604   0.59504   1.00
H3       0.32472    -0.11049   0.67610   1.00
H3       0.23814    -0.06484   0.60147   1.00
H3       0.36138    -0.08076   0.61455   1.00
H3       0.30646    -0.05180   0.56728   1.00
C4       0.25032    0.24930    0.52083   1.00
C4       0.24968    0.25070    0.47917   1.00
C3       0.28005    0.22942    0.54154   1.00
C3       0.28406    0.25531    0.45679   1.00
C3       0.22168    0.26858    0.54357   1.00
C3       0.21437    0.24654    0.45813   1.00
C2       0.25247    0.24820    0.60513   1.00
C2       0.24783    0.25169    0.39486   1.00
C3       0.28100    0.22889    0.58285   1.00
C3       0.28307    0.25584    0.41551   1.00
C3       0.22280    0.26798    0.58486   1.00
C3a      0.21325    0.24706    0.41672   1.00
H1       0.30254    0.21385    0.52575   1.00
H1       0.31190    0.25901    0.47125   1.00
H1       0.30417    0.21330    0.59760   1.00
H1       0.31001    0.25961    0.39944   1.00
H1       0.20048    0.28326    0.60118   1.00
C5       0.17471    0.24223    0.39620   1.00
H1       0.18725    0.24259    0.47378   1.00
H1       0.19865    0.28493    0.52941   1.00
H2       0.17835    0.24396    0.36401   1.00
H2       0.16302    0.21273    0.40295   1.00
N1       0.14716    0.27234    0.40875   1.00
C6       0.15130    0.31106    0.40356   1.00
C6       0.11293    0.26645    0.42712   1.00
C6       0.11945    0.33022    0.41898   1.00
C6       0.09504    0.30184    0.43396   1.00
H3       0.17610    0.32472    0.38951   1.00
H3       0.10147    0.23814    0.43516   1.00
H3       0.11455    0.36138    0.41924   1.00
H3       0.06728    0.30646    0.44820   1.00
C4       0.25032    0.75070    0.47917   1.00
C4       0.24968    0.74930    0.52083   1.00
C3       0.28005    0.77058    0.45846   1.00
C3       0.28406    0.74469    0.54321   1.00
C3       0.22168    0.73142    0.45643   1.00
C3       0.21437    0.75346    0.54187   1.00
C2       0.25247    0.75180    0.39487   1.00
C2       0.24783    0.74831    0.60514   1.00
C3       0.28100    0.77111    0.41715   1.00
C3       0.28307    0.74416    0.58449   1.00
C3       0.22280    0.73202    0.41514   1.00
C3a      0.21325    0.75294    0.58328   1.00
H1       0.30254    0.78615    0.47425   1.00
H1       0.31190    0.74099    0.52875   1.00
H1       0.30417    0.78670    0.40240   1.00
H1       0.31001    0.74039    0.60056   1.00
H1       0.20048    0.71674    0.39882   1.00
C5       0.17471    0.75777    0.60380   1.00
H1       0.18725    0.75741    0.52622   1.00
H1       0.19865    0.71507    0.47059   1.00
H2       0.17835    0.75604    0.63599   1.00
H2       0.16302    0.78727    0.59705   1.00
N1       0.14716    0.72766    0.59125   1.00
C6       0.15130    0.68894    0.59644   1.00
C6       0.11293    0.73355    0.57288   1.00
C6       0.11945    0.66978    0.58102   1.00
C6       0.09504    0.69816    0.56604   1.00
H3       0.17610    0.67528    0.61049   1.00
H3       0.10147    0.76186    0.56484   1.00
H3       0.11455    0.63862    0.58076   1.00
H3       0.06728    0.69354    0.55180   1.00
C4       0.25070    0.97917    0.25032   1.00
C4       0.24930    1.02083    0.24968   1.00
C3       0.27058    0.95846    0.28005   1.00
C3       0.24469    1.04321    0.28406   1.00
C3       0.23142    0.95643    0.22168   1.00
C3       0.25346    1.04187    0.21437   1.00
C2       0.25180    0.89487    0.25247   1.00
C2       0.24831    1.10514    0.24783   1.00
C3       0.27111    0.91715    0.28100   1.00
C3       0.24416    1.08449    0.28307   1.00
C3       0.23202    0.91514    0.22280   1.00
C3a      0.25294    1.08328    0.21325   1.00
H1       0.28615    0.97425    0.30254   1.00
H1       0.24099    1.02875    0.31190   1.00
H1       0.28670    0.90240    0.30417   1.00
H1       0.24039    1.10056    0.31001   1.00
H1       0.21674    0.89882    0.20048   1.00
C5       0.25777    1.10380    0.17471   1.00
H1       0.25741    1.02622    0.18725   1.00
H1       0.21507    0.97059    0.19865   1.00
H2       0.25604    1.13599    0.17835   1.00
H2       0.28727    1.09705    0.16302   1.00
N1       0.22766    1.09125    0.14716   1.00
C6       0.18894    1.09644    0.15130   1.00
C6       0.23355    1.07288    0.11293   1.00
C6       0.16978    1.08102    0.11945   1.00
C6       0.19816    1.06604    0.09504   1.00
H3       0.17528    1.11049    0.17610   1.00
H3       0.26186    1.06484    0.10147   1.00
H3       0.13862    1.08076    0.11455   1.00
H3       0.19354    1.05180    0.06728   1.00
C4       0.02083    0.75032    0.24930   1.00
C4       -0.02083   0.74968    0.25070   1.00
C3       0.04154    0.78005    0.22942   1.00
C3       -0.04321   0.78406    0.25531   1.00
C3       0.04357    0.72168    0.26858   1.00
C3       -0.04187   0.71437    0.24654   1.00
C2       0.10513    0.75247    0.24820   1.00
C2       -0.10514   0.74783    0.25169   1.00
C3       0.08285    0.78100    0.22889   1.00
C3       -0.08449   0.78307    0.25584   1.00
C3       0.08486    0.72280    0.26798   1.00
C3a      -0.08328   0.71325    0.24706   1.00
H1       0.02575    0.80254    0.21385   1.00
H1       -0.02875   0.81190    0.25901   1.00
H1       0.09760    0.80417    0.21330   1.00
H1       -0.10056   0.81001    0.25961   1.00
H1       0.10118    0.70048    0.28326   1.00
C5       -0.10380   0.67471    0.24223   1.00
H1       -0.02622   0.68725    0.24259   1.00
H1       0.02941    0.69865    0.28493   1.00
H2       -0.13599   0.67835    0.24396   1.00
H2       -0.09705   0.66302    0.21273   1.00
N1       -0.09125   0.64716    0.27234   1.00
C6       -0.09644   0.65130    0.31106   1.00
C6       -0.07288   0.61293    0.26645   1.00
C6       -0.08102   0.61945    0.33022   1.00
C6       -0.06604   0.59504    0.30184   1.00
H3       -0.11049   0.67610    0.32472   1.00
H3       -0.06484   0.60147    0.23814   1.00
H3       -0.08076   0.61455    0.36138   1.00
H3       -0.05180   0.56728    0.30646   1.00
C4       0.47917    0.75032    0.25070   1.00
C4       0.52083    0.74968    0.24930   1.00
C3       0.45846    0.78005    0.27058   1.00
C3       0.54321    0.78406    0.24469   1.00
C3       0.45643    0.72168    0.23142   1.00
C3       0.54187    0.71437    0.25346   1.00
C2       0.39487    0.75247    0.25180   1.00
C2       0.60514    0.74783    0.24831   1.00
C3       0.41715    0.78100    0.27111   1.00
C3       0.58449    0.78307    0.24416   1.00
C3       0.41514    0.72280    0.23202   1.00
C3a      0.58328    0.71325    0.25294   1.00
H1       0.47425    0.80254    0.28615   1.00
H1       0.52875    0.81190    0.24099   1.00
H1       0.40240    0.80417    0.28670   1.00
H1       0.60056    0.81001    0.24039   1.00
H1       0.39882    0.70048    0.21674   1.00
C5       0.60380    0.67471    0.25777   1.00
H1       0.52622    0.68725    0.25741   1.00
H1       0.47059    0.69865    0.21507   1.00
H2       0.63599    0.67835    0.25604   1.00
H2       0.59705    0.66302    0.28727   1.00
N1       0.59125    0.64716    0.22766   1.00
C6       0.59644    0.65130    0.18894   1.00
C6       0.57288    0.61293    0.23355   1.00
C6       0.58102    0.61945    0.16978   1.00
C6       0.56604    0.59504    0.19816   1.00
H3       0.61049    0.67610    0.17528   1.00
H3       0.56484    0.60147    0.26186   1.00
H3       0.58076    0.61455    0.13862   1.00
H3       0.55180    0.56728    0.19354   1.00
C4       0.24930    0.52083    0.25032   1.00
C4       0.25070    0.47917    0.24968   1.00
C3       0.22942    0.54154    0.28005   1.00
C3       0.25531    0.45679    0.28406   1.00
C3       0.26858    0.54357    0.22168   1.00
C3       0.24654    0.45813    0.21437   1.00
C2       0.24820    0.60513    0.25247   1.00
C2       0.25169    0.39486    0.24783   1.00
C3       0.22889    0.58285    0.28100   1.00
C3       0.25584    0.41551    0.28307   1.00
C3       0.26798    0.58486    0.22280   1.00
C3a      0.24706    0.41672    0.21325   1.00
H1       0.21385    0.52575    0.30254   1.00
H1       0.25901    0.47125    0.31190   1.00
H1       0.21330    0.59760    0.30417   1.00
H1       0.25961    0.39944    0.31001   1.00
H1       0.28326    0.60118    0.20048   1.00
C5       0.24223    0.39620    0.17471   1.00
H1       0.24259    0.47378    0.18725   1.00
H1       0.28493    0.52941    0.19865   1.00
H2       0.24396    0.36401    0.17835   1.00
H2       0.21273    0.40295    0.16302   1.00
N1       0.27234    0.40875    0.14716   1.00
C6       0.31106    0.40356    0.15130   1.00
C6       0.26645    0.42712    0.11293   1.00
C6       0.33022    0.41898    0.11945   1.00
C6       0.30184    0.43396    0.09504   1.00
H3       0.32472    0.38951    0.17610   1.00
H3       0.23814    0.43516    0.10147   1.00
H3       0.36138    0.41924    0.11455   1.00
H3       0.30646    0.44820    0.06728   1.00
C4       0.25032    0.74930    0.02083   1.00
C4       0.24968    0.75070    -0.02083   1.00
C3       0.28005    0.72942    0.04154   1.00
C3       0.28406    0.75531    -0.04321   1.00
C3       0.22168    0.76858    0.04357   1.00
C3       0.21437    0.74654    -0.04187   1.00
C2       0.25247    0.74820    0.10513   1.00
C2       0.24783    0.75169    -0.10514   1.00
C3       0.28100    0.72889    0.08285   1.00
C3       0.28307    0.75584    -0.08449   1.00
C3       0.22280    0.76798    0.08486   1.00
C3a      0.21325    0.74706    -0.08328   1.00
H1       0.30254    0.71385    0.02575   1.00
H1       0.31190    0.75901    -0.02875   1.00
H1       0.30417    0.71330    0.09760   1.00
H1       0.31001    0.75961    -0.10056   1.00
H1       0.20048    0.78326    0.10118   1.00
C5       0.17471    0.74223    -0.10380   1.00
H1       0.18725    0.74259    -0.02622   1.00
H1       0.19865    0.78493    0.02941   1.00
H2       0.17835    0.74396    -0.13599   1.00
H2       0.16302    0.71273    -0.09705   1.00
N1       0.14716    0.77234    -0.09125   1.00
C6       0.15130    0.81106    -0.09644   1.00
C6       0.11293    0.76645    -0.07288   1.00
C6       0.11945    0.83022    -0.08102   1.00
C6       0.09504    0.80184    -0.06604   1.00
H3       0.17610    0.82472    -0.11049   1.00
H3       0.10147    0.73814    -0.06484   1.00
H3       0.11455    0.86138    -0.08076   1.00
H3       0.06728    0.80646    -0.05180   1.00
C4       0.75032    0.25070    0.47917   1.00
C4       0.74968    0.24930    0.52083   1.00
C3       0.78005    0.27058    0.45846   1.00
C3       0.78406    0.24469    0.54321   1.00
C3       0.72168    0.23142    0.45643   1.00
C3       0.71437    0.25346    0.54187   1.00
C2       0.75247    0.25180    0.39487   1.00
C2       0.74783    0.24831    0.60514   1.00
C3       0.78100    0.27111    0.41715   1.00
C3       0.78307    0.24416    0.58449   1.00
C3       0.72280    0.23202    0.41514   1.00
C3a      0.71325    0.25294    0.58328   1.00
H1       0.80254    0.28615    0.47425   1.00
H1       0.81190    0.24099    0.52875   1.00
H1       0.80417    0.28670    0.40240   1.00
H1       0.81001    0.24039    0.60056   1.00
H1       0.70048    0.21674    0.39882   1.00
C5       0.67471    0.25777    0.60380   1.00
H1       0.68725    0.25741    0.52622   1.00
H1       0.69865    0.21507    0.47059   1.00
H2       0.67835    0.25604    0.63599   1.00
H2       0.66302    0.28727    0.59705   1.00
N1       0.64716    0.22766    0.59125   1.00
C6       0.65130    0.18894    0.59644   1.00
C6       0.61293    0.23355    0.57288   1.00
C6       0.61945    0.16978    0.58102   1.00
C6       0.59504    0.19816    0.56604   1.00
H3       0.67610    0.17528    0.61049   1.00
H3       0.60147    0.26186    0.56484   1.00
H3       0.61455    0.13862    0.58076   1.00
H3       0.56728    0.19354    0.55180   1.00
C4       0.75070    0.47917    0.25032   1.00
C4       0.74930    0.52083    0.24968   1.00
C3       0.77058    0.45846    0.28005   1.00
C3       0.74469    0.54321    0.28406   1.00
C3       0.73142    0.45643    0.22168   1.00
C3       0.75346    0.54187    0.21437   1.00
C2       0.75180    0.39487    0.25247   1.00
C2       0.74831    0.60514    0.24783   1.00
C3       0.77111    0.41715    0.28100   1.00
C3       0.74416    0.58449    0.28307   1.00
C3       0.73202    0.41514    0.22280   1.00
C3a      0.75294    0.58328    0.21325   1.00
H1       0.78615    0.47425    0.30254   1.00
H1       0.74099    0.52875    0.31190   1.00
H1       0.78670    0.40240    0.30417   1.00
H1       0.74039    0.60056    0.31001   1.00
H1       0.71674    0.39882    0.20048   1.00
C5       0.75777    0.60380    0.17471   1.00
H1       0.75741    0.52622    0.18725   1.00
H1       0.71507    0.47059    0.19865   1.00
H2       0.75604    0.63599    0.17835   1.00
H2       0.78727    0.59705    0.16302   1.00
N1       0.72766    0.59125    0.14716   1.00
C6       0.68894    0.59644    0.15130   1.00
C6       0.73355    0.57288    0.11293   1.00
C6       0.66978    0.58102    0.11945   1.00
C6       0.69816    0.56604    0.09504   1.00
H3       0.67528    0.61049    0.17610   1.00
H3       0.76186    0.56484    0.10147   1.00
H3       0.63862    0.58076    0.11455   1.00
H3       0.69354    0.55180    0.06728   1.00
C4       0.52083    0.25032    0.24930   1.00
C4       0.47917    0.24968    0.25070   1.00
C3       0.54154    0.28005    0.22942   1.00
C3       0.45679    0.28406    0.25531   1.00
C3       0.54357    0.22168    0.26858   1.00
C3       0.45813    0.21437    0.24654   1.00
C2       0.60513    0.25247    0.24820   1.00
C2       0.39486    0.24783    0.25169   1.00
C3       0.58285    0.28100    0.22889   1.00
C3       0.41551    0.28307    0.25584   1.00
C3       0.58486    0.22280    0.26798   1.00
C3a      0.41672    0.21325    0.24706   1.00
H1       0.52575    0.30254    0.21385   1.00
H1       0.47125    0.31190    0.25901   1.00
H1       0.59760    0.30417    0.21330   1.00
H1       0.39944    0.31001    0.25961   1.00
H1       0.60118    0.20048    0.28326   1.00
C5       0.39620    0.17471    0.24223   1.00
H1       0.47378    0.18725    0.24259   1.00
H1       0.52941    0.19865    0.28493   1.00
H2       0.36401    0.17835    0.24396   1.00
H2       0.40295    0.16302    0.21273   1.00
N1       0.40875    0.14716    0.27234   1.00
C6       0.40356    0.15130    0.31106   1.00
C6       0.42712    0.11293    0.26645   1.00
C6       0.41898    0.11945    0.33022   1.00
C6       0.43396    0.09504    0.30184   1.00
H3       0.38951    0.17610    0.32472   1.00
H3       0.43516    0.10147    0.23814   1.00
H3       0.41924    0.11455    0.36138   1.00
H3       0.44820    0.06728    0.30646   1.00
C4       0.97917    0.25032    0.25070   1.00
C4       1.02083    0.24968    0.24930   1.00
C3       0.95846    0.28005    0.27058   1.00
C3       1.04321    0.28406    0.24469   1.00
C3       0.95643    0.22168    0.23142   1.00
C3       1.04187    0.21437    0.25346   1.00
C2       0.89487    0.25247    0.25180   1.00
C2       1.10514    0.24783    0.24831   1.00
C3       0.91715    0.28100    0.27111   1.00
C3       1.08449    0.28307    0.24416   1.00
C3       0.91514    0.22280    0.23202   1.00
C3a      1.08328    0.21325    0.25294   1.00
H1       0.97425    0.30254    0.28615   1.00
H1       1.02875    0.31190    0.24099   1.00
H1       0.90240    0.30417    0.28670   1.00
H1       1.10056    0.31001    0.24039   1.00
H1       0.89882    0.20048    0.21674   1.00
C5       1.10380    0.17471    0.25777   1.00
H1       1.02622    0.18725    0.25741   1.00
H1       0.97059    0.19865    0.21507   1.00
H2       1.13599    0.17835    0.25604   1.00
H2       1.09705    0.16302    0.28727   1.00
N1       1.09125    0.14716    0.22766   1.00
C6       1.09644    0.15130    0.18894   1.00
C6       1.07288    0.11293    0.23355   1.00
C6       1.08102    0.11945    0.16978   1.00
C6       1.06604    0.09504    0.19816   1.00
H3       1.11049    0.17610    0.17528   1.00
H3       1.06484    0.10147    0.26186   1.00
H3       1.08076    0.11455    0.13862   1.00
H3       1.05180    0.06728    0.19354   1.00
C4       0.74930    0.02083    0.25032   1.00
C4       0.75070    -0.02083   0.24968   1.00
C3       0.72942    0.04154    0.28005   1.00
C3       0.75531    -0.04321   0.28406   1.00
C3       0.76858    0.04357    0.22168   1.00
C3       0.74654    -0.04187   0.21437   1.00
C2       0.74820    0.10513    0.25247   1.00
C2       0.75169    -0.10514   0.24783   1.00
C3       0.72889    0.08285    0.28100   1.00
C3       0.75584    -0.08449   0.28307   1.00
C3       0.76798    0.08486    0.22280   1.00
C3a      0.74706    -0.08328   0.21325   1.00
H1       0.71385    0.02575    0.30254   1.00
H1       0.75901    -0.02875   0.31190   1.00
H1       0.71330    0.09760    0.30417   1.00
H1       0.75961    -0.10056   0.31001   1.00
H1       0.78326    0.10118    0.20048   1.00
C5       0.74223    -0.10380   0.17471   1.00
H1       0.74259    -0.02622   0.18725   1.00
H1       0.78493    0.02941    0.19865   1.00
H2       0.74396    -0.13599   0.17835   1.00
H2       0.71273    -0.09705   0.16302   1.00
N1       0.77234    -0.09125   0.14716   1.00
C6       0.81106    -0.09644   0.15130   1.00
C6       0.76645    -0.07288   0.11293   1.00
C6       0.83022    -0.08102   0.11945   1.00
C6       0.80184    -0.06604   0.09504   1.00
H3       0.82472    -0.11049   0.17610   1.00
H3       0.73814    -0.06484   0.10147   1.00
H3       0.86138    -0.08076   0.11455   1.00
H3       0.80646    -0.05180   0.06728   1.00
C4       0.75032    0.24930    0.02083   1.00
C4       0.74968    0.25070    -0.02083   1.00
C3       0.78005    0.22942    0.04154   1.00
C3       0.78406    0.25531    -0.04321   1.00
C3       0.72168    0.26858    0.04357   1.00
C3       0.71437    0.24654    -0.04187   1.00
C2       0.75247    0.24820    0.10513   1.00
C2       0.74783    0.25169    -0.10514   1.00
C3       0.78100    0.22889    0.08285   1.00
C3       0.78307    0.25584    -0.08449   1.00
C3       0.72280    0.26798    0.08486   1.00
C3a      0.71325    0.24706    -0.08328   1.00
H1       0.80254    0.21385    0.02575   1.00
H1       0.81190    0.25901    -0.02875   1.00
H1       0.80417    0.21330    0.09760   1.00
H1       0.81001    0.25961    -0.10056   1.00
H1       0.70048    0.28326    0.10118   1.00
C5       0.67471    0.24223    -0.10380   1.00
H1       0.68725    0.24259    -0.02622   1.00
H1       0.69865    0.28493    0.02941   1.00
H2       0.67835    0.24396    -0.13599   1.00
H2       0.66302    0.21273    -0.09705   1.00
N1       0.64716    0.27234    -0.09125   1.00
C6       0.65130    0.31106    -0.09644   1.00
C6       0.61293    0.26645    -0.07288   1.00
C6       0.61945    0.33022    -0.08102   1.00
C6       0.59504    0.30184    -0.06604   1.00
H3       0.67610    0.32472    -0.11049   1.00
H3       0.60147    0.23814    -0.06484   1.00
H3       0.61455    0.36138    -0.08076   1.00
H3       0.56728    0.30646    -0.05180   1.00
C4       0.91532    0.91570    1.14417   1.00
C4       0.91468    0.91430    1.18583   1.00
C3       0.94505    0.93558    1.12346   1.00
C3       0.94906    0.90969    1.20821   1.00
C3       0.88668    0.89642    1.12143   1.00
C3       0.87937    0.91846    1.20687   1.00
C2       0.91747    0.91680    1.05987   1.00
C2       0.91283    0.91331    1.27014   1.00
C3       0.94600    0.93611    1.08215   1.00
C3       0.94807    0.90916    1.24949   1.00
C3       0.88780    0.89702    1.08014   1.00
C3a      0.87825    0.91794    1.24828   1.00
H1       0.96754    0.95115    1.13925   1.00
H1       0.97690    0.90599    1.19375   1.00
H1       0.96917    0.95170    1.06740   1.00
H1       0.97501    0.90539    1.26556   1.00
H1       0.86548    0.88174    1.06382   1.00
C5       0.83971    0.92277    1.26880   1.00
H1       0.85225    0.92241    1.19122   1.00
H1       0.86365    0.88007    1.13559   1.00
H2       0.84335    0.92104    1.30099   1.00
H2       0.82802    0.95227    1.26205   1.00
N1       0.81216    0.89266    1.25625   1.00
C6       0.81630    0.85394    1.26144   1.00
C6       0.77793    0.89855    1.23788   1.00
C6       0.78445    0.83478    1.24602   1.00
C6       0.76004    0.86316    1.23104   1.00
H3       0.84110    0.84028    1.27549   1.00
H3       0.76647    0.92686    1.22984   1.00
H3       0.77955    0.80362    1.24576   1.00
H3       0.73228    0.85854    1.21680   1.00
C4       0.91570    1.14417    0.91532   1.00
C4       0.91430    1.18583    0.91468   1.00
C3       0.93558    1.12346    0.94505   1.00
C3       0.90969    1.20821    0.94906   1.00
C3       0.89642    1.12143    0.88668   1.00
C3       0.91846    1.20687    0.87937   1.00
C2       0.91680    1.05987    0.91747   1.00
C2       0.91331    1.27014    0.91283   1.00
C3       0.93611    1.08215    0.94600   1.00
C3       0.90916    1.24949    0.94807   1.00
C3       0.89702    1.08014    0.88780   1.00
C3a      0.91794    1.24828    0.87825   1.00
H1       0.95115    1.13925    0.96754   1.00
H1       0.90599    1.19375    0.97690   1.00
H1       0.95170    1.06740    0.96917   1.00
H1       0.90539    1.26556    0.97501   1.00
H1       0.88174    1.06382    0.86548   1.00
C5       0.92277    1.26880    0.83971   1.00
H1       0.92241    1.19122    0.85225   1.00
H1       0.88007    1.13559    0.86365   1.00
H2       0.92104    1.30099    0.84335   1.00
H2       0.95227    1.26205    0.82802   1.00
N1       0.89266    1.25625    0.81216   1.00
C6       0.85394    1.26144    0.81630   1.00
C6       0.89855    1.23788    0.77793   1.00
C6       0.83478    1.24602    0.78445   1.00
C6       0.86316    1.23104    0.76004   1.00
H3       0.84028    1.27549    0.84110   1.00
H3       0.92686    1.22984    0.76647   1.00
H3       0.80362    1.24576    0.77955   1.00
H3       0.85854    1.21680    0.73228   1.00
C4       0.68583    0.91532    0.91430   1.00
C4       0.64417    0.91468    0.91570   1.00
C3       0.70654    0.94505    0.89442   1.00
C3       0.62179    0.94906    0.92031   1.00
C3       0.70857    0.88668    0.93358   1.00
C3       0.62313    0.87937    0.91154   1.00
C2       0.77013    0.91747    0.91320   1.00
C2       0.55986    0.91283    0.91669   1.00
C3       0.74785    0.94600    0.89389   1.00
C3       0.58051    0.94807    0.92084   1.00
C3       0.74986    0.88780    0.93298   1.00
C3a      0.58172    0.87825    0.91206   1.00
H1       0.69075    0.96754    0.87885   1.00
H1       0.63625    0.97690    0.92401   1.00
H1       0.76260    0.96917    0.87830   1.00
H1       0.56444    0.97501    0.92461   1.00
H1       0.76618    0.86548    0.94826   1.00
C5       0.56120    0.83971    0.90723   1.00
H1       0.63878    0.85225    0.90759   1.00
H1       0.69441    0.86365    0.94993   1.00
H2       0.52901    0.84335    0.90896   1.00
H2       0.56795    0.82802    0.87773   1.00
N1       0.57375    0.81216    0.93734   1.00
C6       0.56856    0.81630    0.97606   1.00
C6       0.59212    0.77793    0.93145   1.00
C6       0.58398    0.78445    0.99522   1.00
C6       0.59896    0.76004    0.96684   1.00
H3       0.55451    0.84110    0.98972   1.00
H3       0.60016    0.76647    0.90314   1.00
H3       0.58424    0.77955    1.02638   1.00
H3       0.61320    0.73228    0.97146   1.00
C4       1.14417    0.91532    0.91570   1.00
C4       1.18583    0.91468    0.91430   1.00
C3       1.12346    0.94505    0.93558   1.00
C3       1.20821    0.94906    0.90969   1.00
C3       1.12143    0.88668    0.89642   1.00
C3       1.20687    0.87937    0.91846   1.00
C2       1.05987    0.91747    0.91680   1.00
C2       1.27014    0.91283    0.91331   1.00
C3       1.08215    0.94600    0.93611   1.00
C3       1.24949    0.94807    0.90916   1.00
C3       1.08014    0.88780    0.89702   1.00
C3a      1.24828    0.87825    0.91794   1.00
H1       1.13925    0.96754    0.95115   1.00
H1       1.19375    0.97690    0.90599   1.00
H1       1.06740    0.96917    0.95170   1.00
H1       1.26556    0.97501    0.90539   1.00
H1       1.06382    0.86548    0.88174   1.00
C5       1.26880    0.83971    0.92277   1.00
H1       1.19122    0.85225    0.92241   1.00
H1       1.13559    0.86365    0.88007   1.00
H2       1.30099    0.84335    0.92104   1.00
H2       1.26205    0.82802    0.95227   1.00
N1       1.25625    0.81216    0.89266   1.00
C6       1.26144    0.81630    0.85394   1.00
C6       1.23788    0.77793    0.89855   1.00
C6       1.24602    0.78445    0.83478   1.00
C6       1.23104    0.76004    0.86316   1.00
H3       1.27549    0.84110    0.84028   1.00
H3       1.22984    0.76647    0.92686   1.00
H3       1.24576    0.77955    0.80362   1.00
H3       1.21680    0.73228    0.85854   1.00
C4       0.91430    0.68583    0.91532   1.00
C4       0.91570    0.64417    0.91468   1.00
C3       0.89442    0.70654    0.94505   1.00
C3       0.92031    0.62179    0.94906   1.00
C3       0.93358    0.70857    0.88668   1.00
C3       0.91154    0.62313    0.87937   1.00
C2       0.91320    0.77013    0.91747   1.00
C2       0.91669    0.55986    0.91283   1.00
C3       0.89389    0.74785    0.94600   1.00
C3       0.92084    0.58051    0.94807   1.00
C3       0.93298    0.74986    0.88780   1.00
C3a      0.91206    0.58172    0.87825   1.00
H1       0.87885    0.69075    0.96754   1.00
H1       0.92401    0.63625    0.97690   1.00
H1       0.87830    0.76260    0.96917   1.00
H1       0.92461    0.56444    0.97501   1.00
H1       0.94826    0.76618    0.86548   1.00
C5       0.90723    0.56120    0.83971   1.00
H1       0.90759    0.63878    0.85225   1.00
H1       0.94993    0.69441    0.86365   1.00
H2       0.90896    0.52901    0.84335   1.00
H2       0.87773    0.56795    0.82802   1.00
N1       0.93734    0.57375    0.81216   1.00
C6       0.97606    0.56856    0.81630   1.00
C6       0.93145    0.59212    0.77793   1.00
C6       0.99522    0.58398    0.78445   1.00
C6       0.96684    0.59896    0.76004   1.00
H3       0.98972    0.55451    0.84110   1.00
H3       0.90314    0.60016    0.76647   1.00
H3       1.02638    0.58424    0.77955   1.00
H3       0.97146    0.61320    0.73228   1.00
C4       0.91532    0.91430    0.68583   1.00
C4       0.91468    0.91570    0.64417   1.00
C3       0.94505    0.89442    0.70654   1.00
C3       0.94906    0.92031    0.62179   1.00
C3       0.88668    0.93358    0.70857   1.00
C3       0.87937    0.91154    0.62313   1.00
C2       0.91747    0.91320    0.77013   1.00
C2       0.91283    0.91669    0.55986   1.00
C3       0.94600    0.89389    0.74785   1.00
C3       0.94807    0.92084    0.58051   1.00
C3       0.88780    0.93298    0.74986   1.00
C3a      0.87825    0.91206    0.58172   1.00
H1       0.96754    0.87885    0.69075   1.00
H1       0.97690    0.92401    0.63625   1.00
H1       0.96917    0.87830    0.76260   1.00
H1       0.97501    0.92461    0.56444   1.00
H1       0.86548    0.94826    0.76618   1.00
C5       0.83971    0.90723    0.56120   1.00
H1       0.85225    0.90759    0.63878   1.00
H1       0.86365    0.94993    0.69441   1.00
H2       0.84335    0.90896    0.52901   1.00
H2       0.82802    0.87773    0.56795   1.00
N1       0.81216    0.93734    0.57375   1.00
C6       0.81630    0.97606    0.56856   1.00
C6       0.77793    0.93145    0.59212   1.00
C6       0.78445    0.99522    0.58398   1.00
C6       0.76004    0.96684    0.59896   1.00
H3       0.84110    0.98972    0.55451   1.00
H3       0.76647    0.90314    0.60016   1.00
H3       0.77955    1.02638    0.58424   1.00
H3       0.73228    0.97146    0.61320   1.00
C4       0.41532    0.41570    1.14417   1.00
C4       0.41468    0.41430    1.18583   1.00
C3       0.44505    0.43558    1.12346   1.00
C3       0.44906    0.40969    1.20821   1.00
C3       0.38668    0.39642    1.12143   1.00
C3       0.37937    0.41846    1.20687   1.00
C2       0.41747    0.41680    1.05987   1.00
C2       0.41283    0.41331    1.27014   1.00
C3       0.44600    0.43611    1.08215   1.00
C3       0.44807    0.40916    1.24949   1.00
C3       0.38780    0.39702    1.08014   1.00
C3a      0.37825    0.41794    1.24828   1.00
H1       0.46754    0.45115    1.13925   1.00
H1       0.47690    0.40599    1.19375   1.00
H1       0.46917    0.45170    1.06740   1.00
H1       0.47501    0.40539    1.26556   1.00
H1       0.36548    0.38174    1.06382   1.00
C5       0.33971    0.42277    1.26880   1.00
H1       0.35225    0.42241    1.19122   1.00
H1       0.36365    0.38007    1.13559   1.00
H2       0.34335    0.42104    1.30099   1.00
H2       0.32802    0.45227    1.26205   1.00
N1       0.31216    0.39266    1.25625   1.00
C6       0.31630    0.35394    1.26144   1.00
C6       0.27793    0.39855    1.23788   1.00
C6       0.28445    0.33478    1.24602   1.00
C6       0.26004    0.36316    1.23104   1.00
H3       0.34110    0.34028    1.27549   1.00
H3       0.26647    0.42686    1.22984   1.00
H3       0.27955    0.30362    1.24576   1.00
H3       0.23228    0.35854    1.21680   1.00
C4       0.41570    0.64417    0.91532   1.00
C4       0.41430    0.68583    0.91468   1.00
C3       0.43558    0.62346    0.94505   1.00
C3       0.40969    0.70821    0.94906   1.00
C3       0.39642    0.62143    0.88668   1.00
C3       0.41846    0.70687    0.87937   1.00
C2       0.41680    0.55987    0.91747   1.00
C2       0.41331    0.77014    0.91283   1.00
C3       0.43611    0.58215    0.94600   1.00
C3       0.40916    0.74949    0.94807   1.00
C3       0.39702    0.58014    0.88780   1.00
C3a      0.41794    0.74828    0.87825   1.00
H1       0.45115    0.63925    0.96754   1.00
H1       0.40599    0.69375    0.97690   1.00
H1       0.45170    0.56740    0.96917   1.00
H1       0.40539    0.76556    0.97501   1.00
H1       0.38174    0.56382    0.86548   1.00
C5       0.42277    0.76880    0.83971   1.00
H1       0.42241    0.69122    0.85225   1.00
H1       0.38007    0.63559    0.86365   1.00
H2       0.42104    0.80099    0.84335   1.00
H2       0.45227    0.76205    0.82802   1.00
N1       0.39266    0.75625    0.81216   1.00
C6       0.35394    0.76144    0.81630   1.00
C6       0.39855    0.73788    0.77793   1.00
C6       0.33478    0.74602    0.78445   1.00
C6       0.36316    0.73104    0.76004   1.00
H3       0.34028    0.77549    0.84110   1.00
H3       0.42686    0.72984    0.76647   1.00
H3       0.30362    0.74576    0.77955   1.00
H3       0.35854    0.71680    0.73228   1.00
C4       0.18583    0.41532    0.91430   1.00
C4       0.14417    0.41468    0.91570   1.00
C3       0.20654    0.44505    0.89442   1.00
C3       0.12179    0.44906    0.92031   1.00
C3       0.20857    0.38668    0.93358   1.00
C3       0.12313    0.37937    0.91154   1.00
C2       0.27013    0.41747    0.91320   1.00
C2       0.05986    0.41283    0.91669   1.00
C3       0.24785    0.44600    0.89389   1.00
C3       0.08051    0.44807    0.92084   1.00
C3       0.24986    0.38780    0.93298   1.00
C3a      0.08172    0.37825    0.91206   1.00
H1       0.19075    0.46754    0.87885   1.00
H1       0.13625    0.47690    0.92401   1.00
H1       0.26260    0.46917    0.87830   1.00
H1       0.06444    0.47501    0.92461   1.00
H1       0.26618    0.36548    0.94826   1.00
C5       0.06120    0.33971    0.90723   1.00
H1       0.13878    0.35225    0.90759   1.00
H1       0.19441    0.36365    0.94993   1.00
H2       0.02901    0.34335    0.90896   1.00
H2       0.06795    0.32802    0.87773   1.00
N1       0.07375    0.31216    0.93734   1.00
C6       0.06856    0.31630    0.97606   1.00
C6       0.09212    0.27793    0.93145   1.00
C6       0.08398    0.28445    0.99522   1.00
C6       0.09896    0.26004    0.96684   1.00
H3       0.05451    0.34110    0.98972   1.00
H3       0.10016    0.26647    0.90314   1.00
H3       0.08424    0.27955    1.02638   1.00
H3       0.11320    0.23228    0.97146   1.00
C4       0.64417    0.41532    0.91570   1.00
C4       0.68583    0.41468    0.91430   1.00
C3       0.62346    0.44505    0.93558   1.00
C3       0.70821    0.44906    0.90969   1.00
C3       0.62143    0.38668    0.89642   1.00
C3       0.70687    0.37937    0.91846   1.00
C2       0.55987    0.41747    0.91680   1.00
C2       0.77014    0.41283    0.91331   1.00
C3       0.58215    0.44600    0.93611   1.00
C3       0.74949    0.44807    0.90916   1.00
C3       0.58014    0.38780    0.89702   1.00
C3a      0.74828    0.37825    0.91794   1.00
H1       0.63925    0.46754    0.95115   1.00
H1       0.69375    0.47690    0.90599   1.00
H1       0.56740    0.46917    0.95170   1.00
H1       0.76556    0.47501    0.90539   1.00
H1       0.56382    0.36548    0.88174   1.00
C5       0.76880    0.33971    0.92277   1.00
H1       0.69122    0.35225    0.92241   1.00
H1       0.63559    0.36365    0.88007   1.00
H2       0.80099    0.34335    0.92104   1.00
H2       0.76205    0.32802    0.95227   1.00
N1       0.75625    0.31216    0.89266   1.00
C6       0.76144    0.31630    0.85394   1.00
C6       0.73788    0.27793    0.89855   1.00
C6       0.74602    0.28445    0.83478   1.00
C6       0.73104    0.26004    0.86316   1.00
H3       0.77549    0.34110    0.84028   1.00
H3       0.72984    0.26647    0.92686   1.00
H3       0.74576    0.27955    0.80362   1.00
H3       0.71680    0.23228    0.85854   1.00
C4       0.41430    0.18583    0.91532   1.00
C4       0.41570    0.14417    0.91468   1.00
C3       0.39442    0.20654    0.94505   1.00
C3       0.42031    0.12179    0.94906   1.00
C3       0.43358    0.20857    0.88668   1.00
C3       0.41154    0.12313    0.87937   1.00
C2       0.41320    0.27013    0.91747   1.00
C2       0.41669    0.05986    0.91283   1.00
C3       0.39389    0.24785    0.94600   1.00
C3       0.42084    0.08051    0.94807   1.00
C3       0.43298    0.24986    0.88780   1.00
C3a      0.41206    0.08172    0.87825   1.00
H1       0.37885    0.19075    0.96754   1.00
H1       0.42401    0.13625    0.97690   1.00
H1       0.37830    0.26260    0.96917   1.00
H1       0.42461    0.06444    0.97501   1.00
H1       0.44826    0.26618    0.86548   1.00
C5       0.40723    0.06120    0.83971   1.00
H1       0.40759    0.13878    0.85225   1.00
H1       0.44993    0.19441    0.86365   1.00
H2       0.40896    0.02901    0.84335   1.00
H2       0.37773    0.06795    0.82802   1.00
N1       0.43734    0.07375    0.81216   1.00
C6       0.47606    0.06856    0.81630   1.00
C6       0.43145    0.09212    0.77793   1.00
C6       0.49522    0.08398    0.78445   1.00
C6       0.46684    0.09896    0.76004   1.00
H3       0.48972    0.05451    0.84110   1.00
H3       0.40314    0.10016    0.76647   1.00
H3       0.52638    0.08424    0.77955   1.00
H3       0.47146    0.11320    0.73228   1.00
C4       0.41532    0.41430    0.68583   1.00
C4       0.41468    0.41570    0.64417   1.00
C3       0.44505    0.39442    0.70654   1.00
C3       0.44906    0.42031    0.62179   1.00
C3       0.38668    0.43358    0.70857   1.00
C3       0.37937    0.41154    0.62313   1.00
C2       0.41747    0.41320    0.77013   1.00
C2       0.41283    0.41669    0.55986   1.00
C3       0.44600    0.39389    0.74785   1.00
C3       0.44807    0.42084    0.58051   1.00
C3       0.38780    0.43298    0.74986   1.00
C3a      0.37825    0.41206    0.58172   1.00
H1       0.46754    0.37885    0.69075   1.00
H1       0.47690    0.42401    0.63625   1.00
H1       0.46917    0.37830    0.76260   1.00
H1       0.47501    0.42461    0.56444   1.00
H1       0.36548    0.44826    0.76618   1.00
C5       0.33971    0.40723    0.56120   1.00
H1       0.35225    0.40759    0.63878   1.00
H1       0.36365    0.44993    0.69441   1.00
H2       0.34335    0.40896    0.52901   1.00
H2       0.32802    0.37773    0.56795   1.00
N1       0.31216    0.43734    0.57375   1.00
C6       0.31630    0.47606    0.56856   1.00
C6       0.27793    0.43145    0.59212   1.00
C6       0.28445    0.49522    0.58398   1.00
C6       0.26004    0.46684    0.59896   1.00
H3       0.34110    0.48972    0.55451   1.00
H3       0.26647    0.40314    0.60016   1.00
H3       0.27955    0.52638    0.58424   1.00
H3       0.23228    0.47146    0.61320   1.00
C4       0.41532    0.91570    0.64417   1.00
C4       0.41468    0.91430    0.68583   1.00
C3       0.44505    0.93558    0.62346   1.00
C3       0.44906    0.90969    0.70821   1.00
C3       0.38668    0.89642    0.62143   1.00
C3       0.37937    0.91846    0.70687   1.00
C2       0.41747    0.91680    0.55987   1.00
C2       0.41283    0.91331    0.77014   1.00
C3       0.44600    0.93611    0.58215   1.00
C3       0.44807    0.90916    0.74949   1.00
C3       0.38780    0.89702    0.58014   1.00
C3a      0.37825    0.91794    0.74828   1.00
H1       0.46754    0.95115    0.63925   1.00
H1       0.47690    0.90599    0.69375   1.00
H1       0.46917    0.95170    0.56740   1.00
H1       0.47501    0.90539    0.76556   1.00
H1       0.36548    0.88174    0.56382   1.00
C5       0.33971    0.92277    0.76880   1.00
H1       0.35225    0.92241    0.69122   1.00
H1       0.36365    0.88007    0.63559   1.00
H2       0.34335    0.92104    0.80099   1.00
H2       0.32802    0.95227    0.76205   1.00
N1       0.31216    0.89266    0.75625   1.00
C6       0.31630    0.85394    0.76144   1.00
C6       0.27793    0.89855    0.73788   1.00
C6       0.28445    0.83478    0.74602   1.00
C6       0.26004    0.86316    0.73104   1.00
H3       0.34110    0.84028    0.77549   1.00
H3       0.26647    0.92686    0.72984   1.00
H3       0.27955    0.80362    0.74576   1.00
H3       0.23228    0.85854    0.71680   1.00
C4       0.41570    1.14417    0.41532   1.00
C4       0.41430    1.18583    0.41468   1.00
C3       0.43558    1.12346    0.44505   1.00
C3       0.40969    1.20821    0.44906   1.00
C3       0.39642    1.12143    0.38668   1.00
C3       0.41846    1.20687    0.37937   1.00
C2       0.41680    1.05987    0.41747   1.00
C2       0.41331    1.27014    0.41283   1.00
C3       0.43611    1.08215    0.44600   1.00
C3       0.40916    1.24949    0.44807   1.00
C3       0.39702    1.08014    0.38780   1.00
C3a      0.41794    1.24828    0.37825   1.00
H1       0.45115    1.13925    0.46754   1.00
H1       0.40599    1.19375    0.47690   1.00
H1       0.45170    1.06740    0.46917   1.00
H1       0.40539    1.26556    0.47501   1.00
H1       0.38174    1.06382    0.36548   1.00
C5       0.42277    1.26880    0.33971   1.00
H1       0.42241    1.19122    0.35225   1.00
H1       0.38007    1.13559    0.36365   1.00
H2       0.42104    1.30099    0.34335   1.00
H2       0.45227    1.26205    0.32802   1.00
N1       0.39266    1.25625    0.31216   1.00
C6       0.35394    1.26144    0.31630   1.00
C6       0.39855    1.23788    0.27793   1.00
C6       0.33478    1.24602    0.28445   1.00
C6       0.36316    1.23104    0.26004   1.00
H3       0.34028    1.27549    0.34110   1.00
H3       0.42686    1.22984    0.26647   1.00
H3       0.30362    1.24576    0.27955   1.00
H3       0.35854    1.21680    0.23228   1.00
C4       0.18583    0.91532    0.41430   1.00
C4       0.14417    0.91468    0.41570   1.00
C3       0.20654    0.94505    0.39442   1.00
C3       0.12179    0.94906    0.42031   1.00
C3       0.20857    0.88668    0.43358   1.00
C3       0.12313    0.87937    0.41154   1.00
C2       0.27013    0.91747    0.41320   1.00
C2       0.05986    0.91283    0.41669   1.00
C3       0.24785    0.94600    0.39389   1.00
C3       0.08051    0.94807    0.42084   1.00
C3       0.24986    0.88780    0.43298   1.00
C3a      0.08172    0.87825    0.41206   1.00
H1       0.19075    0.96754    0.37885   1.00
H1       0.13625    0.97690    0.42401   1.00
H1       0.26260    0.96917    0.37830   1.00
H1       0.06444    0.97501    0.42461   1.00
H1       0.26618    0.86548    0.44826   1.00
C5       0.06120    0.83971    0.40723   1.00
H1       0.13878    0.85225    0.40759   1.00
H1       0.19441    0.86365    0.44993   1.00
H2       0.02901    0.84335    0.40896   1.00
H2       0.06795    0.82802    0.37773   1.00
N1       0.07375    0.81216    0.43734   1.00
C6       0.06856    0.81630    0.47606   1.00
C6       0.09212    0.77793    0.43145   1.00
C6       0.08398    0.78445    0.49522   1.00
C6       0.09896    0.76004    0.46684   1.00
H3       0.05451    0.84110    0.48972   1.00
H3       0.10016    0.76647    0.40314   1.00
H3       0.08424    0.77955    0.52638   1.00
H3       0.11320    0.73228    0.47146   1.00
C4       0.64417    0.91532    0.41570   1.00
C4       0.68583    0.91468    0.41430   1.00
C3       0.62346    0.94505    0.43558   1.00
C3       0.70821    0.94906    0.40969   1.00
C3       0.62143    0.88668    0.39642   1.00
C3       0.70687    0.87937    0.41846   1.00
C2       0.55987    0.91747    0.41680   1.00
C2       0.77014    0.91283    0.41331   1.00
C3       0.58215    0.94600    0.43611   1.00
C3       0.74949    0.94807    0.40916   1.00
C3       0.58014    0.88780    0.39702   1.00
C3a      0.74828    0.87825    0.41794   1.00
H1       0.63925    0.96754    0.45115   1.00
H1       0.69375    0.97690    0.40599   1.00
H1       0.56740    0.96917    0.45170   1.00
H1       0.76556    0.97501    0.40539   1.00
H1       0.56382    0.86548    0.38174   1.00
C5       0.76880    0.83971    0.42277   1.00
H1       0.69122    0.85225    0.42241   1.00
H1       0.63559    0.86365    0.38007   1.00
H2       0.80099    0.84335    0.42104   1.00
H2       0.76205    0.82802    0.45227   1.00
N1       0.75625    0.81216    0.39266   1.00
C6       0.76144    0.81630    0.35394   1.00
C6       0.73788    0.77793    0.39855   1.00
C6       0.74602    0.78445    0.33478   1.00
C6       0.73104    0.76004    0.36316   1.00
H3       0.77549    0.84110    0.34028   1.00
H3       0.72984    0.76647    0.42686   1.00
H3       0.74576    0.77955    0.30362   1.00
H3       0.71680    0.73228    0.35854   1.00
C4       0.41430    0.68583    0.41532   1.00
C4       0.41570    0.64417    0.41468   1.00
C3       0.39442    0.70654    0.44505   1.00
C3       0.42031    0.62179    0.44906   1.00
C3       0.43358    0.70857    0.38668   1.00
C3       0.41154    0.62313    0.37937   1.00
C2       0.41320    0.77013    0.41747   1.00
C2       0.41669    0.55986    0.41283   1.00
C3       0.39389    0.74785    0.44600   1.00
C3       0.42084    0.58051    0.44807   1.00
C3       0.43298    0.74986    0.38780   1.00
C3a      0.41206    0.58172    0.37825   1.00
H1       0.37885    0.69075    0.46754   1.00
H1       0.42401    0.63625    0.47690   1.00
H1       0.37830    0.76260    0.46917   1.00
H1       0.42461    0.56444    0.47501   1.00
H1       0.44826    0.76618    0.36548   1.00
C5       0.40723    0.56120    0.33971   1.00
H1       0.40759    0.63878    0.35225   1.00
H1       0.44993    0.69441    0.36365   1.00
H2       0.40896    0.52901    0.34335   1.00
H2       0.37773    0.56795    0.32802   1.00
N1       0.43734    0.57375    0.31216   1.00
C6       0.47606    0.56856    0.31630   1.00
C6       0.43145    0.59212    0.27793   1.00
C6       0.49522    0.58398    0.28445   1.00
C6       0.46684    0.59896    0.26004   1.00
H3       0.48972    0.55451    0.34110   1.00
H3       0.40314    0.60016    0.26647   1.00
H3       0.52638    0.58424    0.27955   1.00
H3       0.47146    0.61320    0.23228   1.00
C4       0.41532    0.91430    0.18583   1.00
C4       0.41468    0.91570    0.14417   1.00
C3       0.44505    0.89442    0.20654   1.00
C3       0.44906    0.92031    0.12179   1.00
C3       0.38668    0.93358    0.20857   1.00
C3       0.37937    0.91154    0.12313   1.00
C2       0.41747    0.91320    0.27013   1.00
C2       0.41283    0.91669    0.05986   1.00
C3       0.44600    0.89389    0.24785   1.00
C3       0.44807    0.92084    0.08051   1.00
C3       0.38780    0.93298    0.24986   1.00
C3a      0.37825    0.91206    0.08172   1.00
H1       0.46754    0.87885    0.19075   1.00
H1       0.47690    0.92401    0.13625   1.00
H1       0.46917    0.87830    0.26260   1.00
H1       0.47501    0.92461    0.06444   1.00
H1       0.36548    0.94826    0.26618   1.00
C5       0.33971    0.90723    0.06120   1.00
H1       0.35225    0.90759    0.13878   1.00
H1       0.36365    0.94993    0.19441   1.00
H2       0.34335    0.90896    0.02901   1.00
H2       0.32802    0.87773    0.06795   1.00
N1       0.31216    0.93734    0.07375   1.00
C6       0.31630    0.97606    0.06856   1.00
C6       0.27793    0.93145    0.09212   1.00
C6       0.28445    0.99522    0.08398   1.00
C6       0.26004    0.96684    0.09896   1.00
H3       0.34110    0.98972    0.05451   1.00
H3       0.26647    0.90314    0.10016   1.00
H3       0.27955    1.02638    0.08424   1.00
H3       0.23228    0.97146    0.11320   1.00
C4       0.91532    0.41570    0.64417   1.00
C4       0.91468    0.41430    0.68583   1.00
C3       0.94505    0.43558    0.62346   1.00
C3       0.94906    0.40969    0.70821   1.00
C3       0.88668    0.39642    0.62143   1.00
C3       0.87937    0.41846    0.70687   1.00
C2       0.91747    0.41680    0.55987   1.00
C2       0.91283    0.41331    0.77014   1.00
C3       0.94600    0.43611    0.58215   1.00
C3       0.94807    0.40916    0.74949   1.00
C3       0.88780    0.39702    0.58014   1.00
C3a      0.87825    0.41794    0.74828   1.00
H1       0.96754    0.45115    0.63925   1.00
H1       0.97690    0.40599    0.69375   1.00
H1       0.96917    0.45170    0.56740   1.00
H1       0.97501    0.40539    0.76556   1.00
H1       0.86548    0.38174    0.56382   1.00
C5       0.83971    0.42277    0.76880   1.00
H1       0.85225    0.42241    0.69122   1.00
H1       0.86365    0.38007    0.63559   1.00
H2       0.84335    0.42104    0.80099   1.00
H2       0.82802    0.45227    0.76205   1.00
N1       0.81216    0.39266    0.75625   1.00
C6       0.81630    0.35394    0.76144   1.00
C6       0.77793    0.39855    0.73788   1.00
C6       0.78445    0.33478    0.74602   1.00
C6       0.76004    0.36316    0.73104   1.00
H3       0.84110    0.34028    0.77549   1.00
H3       0.76647    0.42686    0.72984   1.00
H3       0.77955    0.30362    0.74576   1.00
H3       0.73228    0.35854    0.71680   1.00
C4       0.91570    0.64417    0.41532   1.00
C4       0.91430    0.68583    0.41468   1.00
C3       0.93558    0.62346    0.44505   1.00
C3       0.90969    0.70821    0.44906   1.00
C3       0.89642    0.62143    0.38668   1.00
C3       0.91846    0.70687    0.37937   1.00
C2       0.91680    0.55987    0.41747   1.00
C2       0.91331    0.77014    0.41283   1.00
C3       0.93611    0.58215    0.44600   1.00
C3       0.90916    0.74949    0.44807   1.00
C3       0.89702    0.58014    0.38780   1.00
C3a      0.91794    0.74828    0.37825   1.00
H1       0.95115    0.63925    0.46754   1.00
H1       0.90599    0.69375    0.47690   1.00
H1       0.95170    0.56740    0.46917   1.00
H1       0.90539    0.76556    0.47501   1.00
H1       0.88174    0.56382    0.36548   1.00
C5       0.92277    0.76880    0.33971   1.00
H1       0.92241    0.69122    0.35225   1.00
H1       0.88007    0.63559    0.36365   1.00
H2       0.92104    0.80099    0.34335   1.00
H2       0.95227    0.76205    0.32802   1.00
N1       0.89266    0.75625    0.31216   1.00
C6       0.85394    0.76144    0.31630   1.00
C6       0.89855    0.73788    0.27793   1.00
C6       0.83478    0.74602    0.28445   1.00
C6       0.86316    0.73104    0.26004   1.00
H3       0.84028    0.77549    0.34110   1.00
H3       0.92686    0.72984    0.26647   1.00
H3       0.80362    0.74576    0.27955   1.00
H3       0.85854    0.71680    0.23228   1.00
C4       0.68583    0.41532    0.41430   1.00
C4       0.64417    0.41468    0.41570   1.00
C3       0.70654    0.44505    0.39442   1.00
C3       0.62179    0.44906    0.42031   1.00
C3       0.70857    0.38668    0.43358   1.00
C3       0.62313    0.37937    0.41154   1.00
C2       0.77013    0.41747    0.41320   1.00
C2       0.55986    0.41283    0.41669   1.00
C3       0.74785    0.44600    0.39389   1.00
C3       0.58051    0.44807    0.42084   1.00
C3       0.74986    0.38780    0.43298   1.00
C3a      0.58172    0.37825    0.41206   1.00
H1       0.69075    0.46754    0.37885   1.00
H1       0.63625    0.47690    0.42401   1.00
H1       0.76260    0.46917    0.37830   1.00
H1       0.56444    0.47501    0.42461   1.00
H1       0.76618    0.36548    0.44826   1.00
C5       0.56120    0.33971    0.40723   1.00
H1       0.63878    0.35225    0.40759   1.00
H1       0.69441    0.36365    0.44993   1.00
H2       0.52901    0.34335    0.40896   1.00
H2       0.56795    0.32802    0.37773   1.00
N1       0.57375    0.31216    0.43734   1.00
C6       0.56856    0.31630    0.47606   1.00
C6       0.59212    0.27793    0.43145   1.00
C6       0.58398    0.28445    0.49522   1.00
C6       0.59896    0.26004    0.46684   1.00
H3       0.55451    0.34110    0.48972   1.00
H3       0.60016    0.26647    0.40314   1.00
H3       0.58424    0.27955    0.52638   1.00
H3       0.61320    0.23228    0.47146   1.00
C4       1.14417    0.41532    0.41570   1.00
C4       1.18583    0.41468    0.41430   1.00
C3       1.12346    0.44505    0.43558   1.00
C3       1.20821    0.44906    0.40969   1.00
C3       1.12143    0.38668    0.39642   1.00
C3       1.20687    0.37937    0.41846   1.00
C2       1.05987    0.41747    0.41680   1.00
C2       1.27014    0.41283    0.41331   1.00
C3       1.08215    0.44600    0.43611   1.00
C3       1.24949    0.44807    0.40916   1.00
C3       1.08014    0.38780    0.39702   1.00
C3a      1.24828    0.37825    0.41794   1.00
H1       1.13925    0.46754    0.45115   1.00
H1       1.19375    0.47690    0.40599   1.00
H1       1.06740    0.46917    0.45170   1.00
H1       1.26556    0.47501    0.40539   1.00
H1       1.06382    0.36548    0.38174   1.00
C5       1.26880    0.33971    0.42277   1.00
H1       1.19122    0.35225    0.42241   1.00
H1       1.13559    0.36365    0.38007   1.00
H2       1.30099    0.34335    0.42104   1.00
H2       1.26205    0.32802    0.45227   1.00
N1       1.25625    0.31216    0.39266   1.00
C6       1.26144    0.31630    0.35394   1.00
C6       1.23788    0.27793    0.39855   1.00
C6       1.24602    0.28445    0.33478   1.00
C6       1.23104    0.26004    0.36316   1.00
H3       1.27549    0.34110    0.34028   1.00
H3       1.22984    0.26647    0.42686   1.00
H3       1.24576    0.27955    0.30362   1.00
H3       1.21680    0.23228    0.35854   1.00
C4       0.91430    0.18583    0.41532   1.00
C4       0.91570    0.14417    0.41468   1.00
C3       0.89442    0.20654    0.44505   1.00
C3       0.92031    0.12179    0.44906   1.00
C3       0.93358    0.20857    0.38668   1.00
C3       0.91154    0.12313    0.37937   1.00
C2       0.91320    0.27013    0.41747   1.00
C2       0.91669    0.05986    0.41283   1.00
C3       0.89389    0.24785    0.44600   1.00
C3       0.92084    0.08051    0.44807   1.00
C3       0.93298    0.24986    0.38780   1.00
C3a      0.91206    0.08172    0.37825   1.00
H1       0.87885    0.19075    0.46754   1.00
H1       0.92401    0.13625    0.47690   1.00
H1       0.87830    0.26260    0.46917   1.00
H1       0.92461    0.06444    0.47501   1.00
H1       0.94826    0.26618    0.36548   1.00
C5       0.90723    0.06120    0.33971   1.00
H1       0.90759    0.13878    0.35225   1.00
H1       0.94993    0.19441    0.36365   1.00
H2       0.90896    0.02901    0.34335   1.00
H2       0.87773    0.06795    0.32802   1.00
N1       0.93734    0.07375    0.31216   1.00
C6       0.97606    0.06856    0.31630   1.00
C6       0.93145    0.09212    0.27793   1.00
C6       0.99522    0.08398    0.28445   1.00
C6       0.96684    0.09896    0.26004   1.00
H3       0.98972    0.05451    0.34110   1.00
H3       0.90314    0.10016    0.26647   1.00
H3       1.02638    0.08424    0.27955   1.00
H3       0.97146    0.11320    0.23228   1.00
C4       0.91532    0.41430    0.18583   1.00
C4       0.91468    0.41570    0.14417   1.00
C3       0.94505    0.39442    0.20654   1.00
C3       0.94906    0.42031    0.12179   1.00
C3       0.88668    0.43358    0.20857   1.00
C3       0.87937    0.41154    0.12313   1.00
C2       0.91747    0.41320    0.27013   1.00
C2       0.91283    0.41669    0.05986   1.00
C3       0.94600    0.39389    0.24785   1.00
C3       0.94807    0.42084    0.08051   1.00
C3       0.88780    0.43298    0.24986   1.00
C3a      0.87825    0.41206    0.08172   1.00
H1       0.96754    0.37885    0.19075   1.00
H1       0.97690    0.42401    0.13625   1.00
H1       0.96917    0.37830    0.26260   1.00
H1       0.97501    0.42461    0.06444   1.00
H1       0.86548    0.44826    0.26618   1.00
C5       0.83971    0.40723    0.06120   1.00
H1       0.85225    0.40759    0.13878   1.00
H1       0.86365    0.44993    0.19441   1.00
H2       0.84335    0.40896    0.02901   1.00
H2       0.82802    0.37773    0.06795   1.00
N1       0.81216    0.43734    0.07375   1.00
C6       0.81630    0.47606    0.06856   1.00
C6       0.77793    0.43145    0.09212   1.00
C6       0.78445    0.49522    0.08398   1.00
C6       0.76004    0.46684    0.09896   1.00
H3       0.84110    0.48972    0.05451   1.00
H3       0.76647    0.40314    0.10016   1.00
H3       0.77955    0.52638    0.08424   1.00
H3       0.73228    0.47146    0.11320   1.00
