data_IRMOF10_SG202_interpen_Ligand10cp_label_y.

_audit_creation_method             'generated by an auxiliary program of Tobunporous'

_symmetry_space_group_name_H-M     'P 1'
_symmetry_Int_Tables_number        1
_symmetry_cell_setting             triclinic

_cell_length_a                    34.2800
_cell_length_b                    34.2800
_cell_length_c                    34.2800
_cell_angle_alpha                 90.0000
_cell_angle_beta                  90.0000
_cell_angle_gamma                 90.0000

loop_
_atom_site_label
_atom_site_fract_x
_atom_site_fract_y
_atom_site_fract_z
_atom_site_occupancy
O1       0.75000    0.75000    0.75000   1.00
Zn1      0.71720    0.78280    0.78280   1.00
Zn1      0.78280    0.71720    0.78280   1.00
Zn1      0.78280    0.78280    0.71720   1.00
Zn1      0.71720    0.71720    0.71720   1.00
O2       0.72650    0.77350    0.83820   1.00
O2       0.72650    0.83820    0.77350   1.00
O2       0.66180    0.77350    0.77350   1.00
O2       0.77350    0.72650    0.83820   1.00
O2       0.83820    0.72650    0.77350   1.00
O2       0.77350    0.66180    0.77350   1.00
O2       0.77350    0.83820    0.72650   1.00
O2       0.83820    0.77350    0.72650   1.00
O2       0.77350    0.77350    0.66180   1.00
O2       0.66180    0.72650    0.72650   1.00
O2       0.72650    0.66180    0.72650   1.00
O2       0.72650    0.72650    0.66180   1.00
C1       0.75000    0.75000    0.85520   1.00
C1       0.75000    0.85520    0.75000   1.00
C1       0.64480    0.75000    0.75000   1.00
C1       0.85520    0.75000    0.75000   1.00
C1       0.75000    0.64480    0.75000   1.00
C1       0.75000    0.75000    0.64480   1.00
O1       0.25000    0.25000    0.75000   1.00
Zn1      0.21720    0.28280    0.78280   1.00
Zn1      0.28280    0.21720    0.78280   1.00
Zn1      0.28280    0.28280    0.71720   1.00
Zn1      0.21720    0.21720    0.71720   1.00
O2       0.22650    0.27350    0.83820   1.00
O2       0.22650    0.33820    0.77350   1.00
O2       0.16180    0.27350    0.77350   1.00
O2       0.27350    0.22650    0.83820   1.00
O2       0.33820    0.22650    0.77350   1.00
O2       0.27350    0.16180    0.77350   1.00
O2       0.27350    0.33820    0.72650   1.00
O2       0.33820    0.27350    0.72650   1.00
O2       0.27350    0.27350    0.66180   1.00
O2       0.16180    0.22650    0.72650   1.00
O2       0.22650    0.16180    0.72650   1.00
O2       0.22650    0.22650    0.66180   1.00
C1       0.25000    0.25000    0.85520   1.00
C1       0.25000    0.35520    0.75000   1.00
C1       0.14480    0.25000    0.75000   1.00
C1       0.35520    0.25000    0.75000   1.00
C1       0.25000    0.14480    0.75000   1.00
C1       0.25000    0.25000    0.64480   1.00
O1       0.25000    0.75000    0.25000   1.00
Zn1      0.21720    0.78280    0.28280   1.00
Zn1      0.28280    0.71720    0.28280   1.00
Zn1      0.28280    0.78280    0.21720   1.00
Zn1      0.21720    0.71720    0.21720   1.00
O2       0.22650    0.77350    0.33820   1.00
O2       0.22650    0.83820    0.27350   1.00
O2       0.16180    0.77350    0.27350   1.00
O2       0.27350    0.72650    0.33820   1.00
O2       0.33820    0.72650    0.27350   1.00
O2       0.27350    0.66180    0.27350   1.00
O2       0.27350    0.83820    0.22650   1.00
O2       0.33820    0.77350    0.22650   1.00
O2       0.27350    0.77350    0.16180   1.00
O2       0.16180    0.72650    0.22650   1.00
O2       0.22650    0.66180    0.22650   1.00
O2       0.22650    0.72650    0.16180   1.00
C1       0.25000    0.75000    0.35520   1.00
C1       0.25000    0.85520    0.25000   1.00
C1       0.14480    0.75000    0.25000   1.00
C1       0.35520    0.75000    0.25000   1.00
C1       0.25000    0.64480    0.25000   1.00
C1       0.25000    0.75000    0.14480   1.00
O1       0.75000    0.25000    0.25000   1.00
Zn1      0.71720    0.28280    0.28280   1.00
Zn1      0.78280    0.21720    0.28280   1.00
Zn1      0.78280    0.28280    0.21720   1.00
Zn1      0.71720    0.21720    0.21720   1.00
O2       0.72650    0.27350    0.33820   1.00
O2       0.72650    0.33820    0.27350   1.00
O2       0.66180    0.27350    0.27350   1.00
O2       0.77350    0.22650    0.33820   1.00
O2       0.83820    0.22650    0.27350   1.00
O2       0.77350    0.16180    0.27350   1.00
O2       0.77350    0.33820    0.22650   1.00
O2       0.83820    0.27350    0.22650   1.00
O2       0.77350    0.27350    0.16180   1.00
O2       0.66180    0.22650    0.22650   1.00
O2       0.72650    0.16180    0.22650   1.00
O2       0.72650    0.22650    0.16180   1.00
C1       0.75000    0.25000    0.35520   1.00
C1       0.75000    0.35520    0.25000   1.00
C1       0.64480    0.25000    0.25000   1.00
C1       0.85520    0.25000    0.25000   1.00
C1       0.75000    0.14480    0.25000   1.00
C1       0.75000    0.25000    0.14480   1.00
O1       0.25000    0.25000    0.25000   1.00
Zn1      0.28280    0.21720    0.21720   1.00
Zn1      0.21720    0.28280    0.21720   1.00
Zn1      0.21720    0.21720    0.28280   1.00
Zn1      0.28280    0.28280    0.28280   1.00
O2       0.27350    0.22650    0.16180   1.00
O2       0.27350    0.16180    0.22650   1.00
O2       0.33820    0.22650    0.22650   1.00
O2       0.22650    0.27350    0.16180   1.00
O2       0.16180    0.27350    0.22650   1.00
O2       0.22650    0.33820    0.22650   1.00
O2       0.22650    0.16180    0.27350   1.00
O2       0.16180    0.22650    0.27350   1.00
O2       0.22650    0.22650    0.33820   1.00
O2       0.33820    0.27350    0.27350   1.00
O2       0.27350    0.33820    0.27350   1.00
O2       0.27350    0.27350    0.33820   1.00
C1       0.25000    0.25000    0.14480   1.00
C1       0.25000    0.14480    0.25000   1.00
C1       0.35520    0.25000    0.25000   1.00
C1       0.14480    0.25000    0.25000   1.00
C1       0.25000    0.35520    0.25000   1.00
C1       0.25000    0.25000    0.35520   1.00
O1       0.75000    0.75000    0.25000   1.00
Zn1      0.78280    0.71720    0.21720   1.00
Zn1      0.71720    0.78280    0.21720   1.00
Zn1      0.71720    0.71720    0.28280   1.00
Zn1      0.78280    0.78280    0.28280   1.00
O2       0.77350    0.72650    0.16180   1.00
O2       0.77350    0.66180    0.22650   1.00
O2       0.83820    0.72650    0.22650   1.00
O2       0.72650    0.77350    0.16180   1.00
O2       0.66180    0.77350    0.22650   1.00
O2       0.72650    0.83820    0.22650   1.00
O2       0.72650    0.66180    0.27350   1.00
O2       0.66180    0.72650    0.27350   1.00
O2       0.72650    0.72650    0.33820   1.00
O2       0.83820    0.77350    0.27350   1.00
O2       0.77350    0.83820    0.27350   1.00
O2       0.77350    0.77350    0.33820   1.00
C1       0.75000    0.75000    0.14480   1.00
C1       0.75000    0.64480    0.25000   1.00
C1       0.85520    0.75000    0.25000   1.00
C1       0.64480    0.75000    0.25000   1.00
C1       0.75000    0.85520    0.25000   1.00
C1       0.75000    0.75000    0.35520   1.00
O1       0.75000    0.25000    0.75000   1.00
Zn1      0.78280    0.21720    0.71720   1.00
Zn1      0.71720    0.28280    0.71720   1.00
Zn1      0.71720    0.21720    0.78280   1.00
Zn1      0.78280    0.28280    0.78280   1.00
O2       0.77350    0.22650    0.66180   1.00
O2       0.77350    0.16180    0.72650   1.00
O2       0.83820    0.22650    0.72650   1.00
O2       0.72650    0.27350    0.66180   1.00
O2       0.66180    0.27350    0.72650   1.00
O2       0.72650    0.33820    0.72650   1.00
O2       0.72650    0.16180    0.77350   1.00
O2       0.66180    0.22650    0.77350   1.00
O2       0.72650    0.22650    0.83820   1.00
O2       0.83820    0.27350    0.77350   1.00
O2       0.77350    0.33820    0.77350   1.00
O2       0.77350    0.27350    0.83820   1.00
C1       0.75000    0.25000    0.64480   1.00
C1       0.75000    0.14480    0.75000   1.00
C1       0.85520    0.25000    0.75000   1.00
C1       0.64480    0.25000    0.75000   1.00
C1       0.75000    0.35520    0.75000   1.00
C1       0.75000    0.25000    0.85520   1.00
O1       0.25000    0.75000    0.75000   1.00
Zn1      0.28280    0.71720    0.71720   1.00
Zn1      0.21720    0.78280    0.71720   1.00
Zn1      0.21720    0.71720    0.78280   1.00
Zn1      0.28280    0.78280    0.78280   1.00
O2       0.27350    0.72650    0.66180   1.00
O2       0.27350    0.66180    0.72650   1.00
O2       0.33820    0.72650    0.72650   1.00
O2       0.22650    0.77350    0.66180   1.00
O2       0.16180    0.77350    0.72650   1.00
O2       0.22650    0.83820    0.72650   1.00
O2       0.22650    0.66180    0.77350   1.00
O2       0.16180    0.72650    0.77350   1.00
O2       0.22650    0.72650    0.83820   1.00
O2       0.33820    0.77350    0.77350   1.00
O2       0.27350    0.83820    0.77350   1.00
O2       0.27350    0.77350    0.83820   1.00
C1       0.25000    0.75000    0.64480   1.00
C1       0.25000    0.64480    0.75000   1.00
C1       0.35520    0.75000    0.75000   1.00
C1       0.14480    0.75000    0.75000   1.00
C1       0.25000    0.85520    0.75000   1.00
C1       0.25000    0.75000    0.85520   1.00
O1       0.91500    0.91500    0.91500   1.00
Zn1      0.88220    0.94780    0.94780   1.00
Zn1      0.94780    0.88220    0.94780   1.00
Zn1      0.94780    0.94780    0.88220   1.00
Zn1      0.88220    0.88220    0.88220   1.00
O2       0.89150    0.93850    1.00320   1.00
O2       0.89150    1.00320    0.93850   1.00
O2       0.82680    0.93850    0.93850   1.00
O2       0.93850    0.89150    1.00320   1.00
O2       1.00320    0.89150    0.93850   1.00
O2       0.93850    0.82680    0.93850   1.00
O2       0.93850    1.00320    0.89150   1.00
O2       1.00320    0.93850    0.89150   1.00
O2       0.93850    0.93850    0.82680   1.00
O2       0.82680    0.89150    0.89150   1.00
O2       0.89150    0.82680    0.89150   1.00
O2       0.89150    0.89150    0.82680   1.00
C1       0.91500    0.91500    1.02020   1.00
C1       0.91500    1.02020    0.91500   1.00
C1       0.80980    0.91500    0.91500   1.00
C1       1.02020    0.91500    0.91500   1.00
C1       0.91500    0.80980    0.91500   1.00
C1       0.91500    0.91500    0.80980   1.00
O1       0.41500    0.41500    0.91500   1.00
Zn1      0.38220    0.44780    0.94780   1.00
Zn1      0.44780    0.38220    0.94780   1.00
Zn1      0.44780    0.44780    0.88220   1.00
Zn1      0.38220    0.38220    0.88220   1.00
O2       0.39150    0.43850    1.00320   1.00
O2       0.39150    0.50320    0.93850   1.00
O2       0.32680    0.43850    0.93850   1.00
O2       0.43850    0.39150    1.00320   1.00
O2       0.50320    0.39150    0.93850   1.00
O2       0.43850    0.32680    0.93850   1.00
O2       0.43850    0.50320    0.89150   1.00
O2       0.50320    0.43850    0.89150   1.00
O2       0.43850    0.43850    0.82680   1.00
O2       0.32680    0.39150    0.89150   1.00
O2       0.39150    0.32680    0.89150   1.00
O2       0.39150    0.39150    0.82680   1.00
C1       0.41500    0.41500    1.02020   1.00
C1       0.41500    0.52020    0.91500   1.00
C1       0.30980    0.41500    0.91500   1.00
C1       0.52020    0.41500    0.91500   1.00
C1       0.41500    0.30980    0.91500   1.00
C1       0.41500    0.41500    0.80980   1.00
O1       0.41500    0.91500    0.41500   1.00
Zn1      0.38220    0.94780    0.44780   1.00
Zn1      0.44780    0.88220    0.44780   1.00
Zn1      0.44780    0.94780    0.38220   1.00
Zn1      0.38220    0.88220    0.38220   1.00
O2       0.39150    0.93850    0.50320   1.00
O2       0.39150    1.00320    0.43850   1.00
O2       0.32680    0.93850    0.43850   1.00
O2       0.43850    0.89150    0.50320   1.00
O2       0.50320    0.89150    0.43850   1.00
O2       0.43850    0.82680    0.43850   1.00
O2       0.43850    1.00320    0.39150   1.00
O2       0.50320    0.93850    0.39150   1.00
O2       0.43850    0.93850    0.32680   1.00
O2       0.32680    0.89150    0.39150   1.00
O2       0.39150    0.82680    0.39150   1.00
O2       0.39150    0.89150    0.32680   1.00
C1       0.41500    0.91500    0.52020   1.00
C1       0.41500    1.02020    0.41500   1.00
C1       0.30980    0.91500    0.41500   1.00
C1       0.52020    0.91500    0.41500   1.00
C1       0.41500    0.80980    0.41500   1.00
C1       0.41500    0.91500    0.30980   1.00
O1       0.91500    0.41500    0.41500   1.00
Zn1      0.88220    0.44780    0.44780   1.00
Zn1      0.94780    0.38220    0.44780   1.00
Zn1      0.94780    0.44780    0.38220   1.00
Zn1      0.88220    0.38220    0.38220   1.00
O2       0.89150    0.43850    0.50320   1.00
O2       0.89150    0.50320    0.43850   1.00
O2       0.82680    0.43850    0.43850   1.00
O2       0.93850    0.39150    0.50320   1.00
O2       1.00320    0.39150    0.43850   1.00
O2       0.93850    0.32680    0.43850   1.00
O2       0.93850    0.50320    0.39150   1.00
O2       1.00320    0.43850    0.39150   1.00
O2       0.93850    0.43850    0.32680   1.00
O2       0.82680    0.39150    0.39150   1.00
O2       0.89150    0.32680    0.39150   1.00
O2       0.89150    0.39150    0.32680   1.00
C1       0.91500    0.41500    0.52020   1.00
C1       0.91500    0.52020    0.41500   1.00
C1       0.80980    0.41500    0.41500   1.00
C1       1.02020    0.41500    0.41500   1.00
C1       0.91500    0.30980    0.41500   1.00
C1       0.91500    0.41500    0.30980   1.00
O1       0.41500    0.41500    0.41500   1.00
Zn1      0.44780    0.38220    0.38220   1.00
Zn1      0.38220    0.44780    0.38220   1.00
Zn1      0.38220    0.38220    0.44780   1.00
Zn1      0.44780    0.44780    0.44780   1.00
O2       0.43850    0.39150    0.32680   1.00
O2       0.43850    0.32680    0.39150   1.00
O2       0.50320    0.39150    0.39150   1.00
O2       0.39150    0.43850    0.32680   1.00
O2       0.32680    0.43850    0.39150   1.00
O2       0.39150    0.50320    0.39150   1.00
O2       0.39150    0.32680    0.43850   1.00
O2       0.32680    0.39150    0.43850   1.00
O2       0.39150    0.39150    0.50320   1.00
O2       0.50320    0.43850    0.43850   1.00
O2       0.43850    0.50320    0.43850   1.00
O2       0.43850    0.43850    0.50320   1.00
C1       0.41500    0.41500    0.30980   1.00
C1       0.41500    0.30980    0.41500   1.00
C1       0.52020    0.41500    0.41500   1.00
C1       0.30980    0.41500    0.41500   1.00
C1       0.41500    0.52020    0.41500   1.00
C1       0.41500    0.41500    0.52020   1.00
O1       0.91500    0.91500    0.41500   1.00
Zn1      0.94780    0.88220    0.38220   1.00
Zn1      0.88220    0.94780    0.38220   1.00
Zn1      0.88220    0.88220    0.44780   1.00
Zn1      0.94780    0.94780    0.44780   1.00
O2       0.93850    0.89150    0.32680   1.00
O2       0.93850    0.82680    0.39150   1.00
O2       1.00320    0.89150    0.39150   1.00
O2       0.89150    0.93850    0.32680   1.00
O2       0.82680    0.93850    0.39150   1.00
O2       0.89150    1.00320    0.39150   1.00
O2       0.89150    0.82680    0.43850   1.00
O2       0.82680    0.89150    0.43850   1.00
O2       0.89150    0.89150    0.50320   1.00
O2       1.00320    0.93850    0.43850   1.00
O2       0.93850    1.00320    0.43850   1.00
O2       0.93850    0.93850    0.50320   1.00
C1       0.91500    0.91500    0.30980   1.00
C1       0.91500    0.80980    0.41500   1.00
C1       1.02020    0.91500    0.41500   1.00
C1       0.80980    0.91500    0.41500   1.00
C1       0.91500    1.02020    0.41500   1.00
C1       0.91500    0.91500    0.52020   1.00
O1       0.91500    0.41500    0.91500   1.00
Zn1      0.94780    0.38220    0.88220   1.00
Zn1      0.88220    0.44780    0.88220   1.00
Zn1      0.88220    0.38220    0.94780   1.00
Zn1      0.94780    0.44780    0.94780   1.00
O2       0.93850    0.39150    0.82680   1.00
O2       0.93850    0.32680    0.89150   1.00
O2       1.00320    0.39150    0.89150   1.00
O2       0.89150    0.43850    0.82680   1.00
O2       0.82680    0.43850    0.89150   1.00
O2       0.89150    0.50320    0.89150   1.00
O2       0.89150    0.32680    0.93850   1.00
O2       0.82680    0.39150    0.93850   1.00
O2       0.89150    0.39150    1.00320   1.00
O2       1.00320    0.43850    0.93850   1.00
O2       0.93850    0.50320    0.93850   1.00
O2       0.93850    0.43850    1.00320   1.00
C1       0.91500    0.41500    0.80980   1.00
C1       0.91500    0.30980    0.91500   1.00
C1       1.02020    0.41500    0.91500   1.00
C1       0.80980    0.41500    0.91500   1.00
C1       0.91500    0.52020    0.91500   1.00
C1       0.91500    0.41500    1.02020   1.00
O1       0.41500    0.91500    0.91500   1.00
Zn1      0.44780    0.88220    0.88220   1.00
Zn1      0.38220    0.94780    0.88220   1.00
Zn1      0.38220    0.88220    0.94780   1.00
Zn1      0.44780    0.94780    0.94780   1.00
O2       0.43850    0.89150    0.82680   1.00
O2       0.43850    0.82680    0.89150   1.00
O2       0.50320    0.89150    0.89150   1.00
O2       0.39150    0.93850    0.82680   1.00
O2       0.32680    0.93850    0.89150   1.00
O2       0.39150    1.00320    0.89150   1.00
O2       0.39150    0.82680    0.93850   1.00
O2       0.32680    0.89150    0.93850   1.00
O2       0.39150    0.89150    1.00320   1.00
O2       0.50320    0.93850    0.93850   1.00
O2       0.43850    1.00320    0.93850   1.00
O2       0.43850    0.93850    1.00320   1.00
C1       0.41500    0.91500    0.80980   1.00
C1       0.41500    0.80980    0.91500   1.00
C1       0.52020    0.91500    0.91500   1.00
C1       0.30980    0.91500    0.91500   1.00
C1       0.41500    1.02020    0.91500   1.00
C1       0.41500    0.91500    1.02020   1.00
C4       0.74970    0.75024    0.97915   1.00
C4       0.75030    0.74976    1.02085   1.00
C3       0.76058    0.78371    0.95751   1.00
C3       0.78034    0.76797    1.04252   1.00
C3       0.73896    0.71682    0.95738   1.00
C3       0.72020    0.73167    1.04259   1.00
C2       0.75010    0.75012    0.89482   1.00
C2       0.75010    0.75012    1.10518   1.00
C3a      0.76082    0.78380    0.91599   1.00
C3       0.78018    0.76809    1.08382   1.00
C3       0.73918    0.71683    0.91611   1.00
C3a      0.71993    0.73173    1.08403   1.00
H1       0.76866    0.81005    0.97294   1.00
H1       0.80437    0.78194    1.02750   1.00
C5       0.77240    0.82005    0.89410   1.00
H1       0.80375    0.78232    1.09933   1.00
H1       0.73106    0.69056    0.90056   1.00
C5       0.68704    0.71190    1.10535   1.00
H1       0.69592    0.71828    1.02747   1.00
H1       0.73106    0.69013    0.97230   1.00
H2       0.68779    0.68024    1.09837   1.00
H2       0.69059    0.71470    1.13747   1.00
N1       0.64950    0.72872    1.09395   1.00
C6       0.63347    0.72771    1.05810   1.00
C6       0.62449    0.74772    1.11757   1.00
C6       0.59785    0.74644    1.05873   1.00
C6       0.59215    0.75917    1.09656   1.00
H3       0.64673    0.71417    1.03281   1.00
H3       0.62945    0.75310    1.14831   1.00
H3       0.57820    0.75034    1.03436   1.00
H3       0.56720    0.77500    1.10758   1.00
H2       0.77123    0.81392    0.86228   1.00
H2       0.75181    0.84438    0.90001   1.00
N1       0.81169    0.83214    0.90523   1.00
C6       0.84497    0.83517    0.88078   1.00
C6       0.82469    0.84363    0.94285   1.00
C6       0.87629    0.84777    0.90277   1.00
C6       0.86383    0.85296    0.94091   1.00
H3       0.84547    0.82849    0.84992   1.00
H3       0.80663    0.84445    0.96876   1.00
H3       0.90555    0.85267    0.89205   1.00
H3       0.88172    0.86255    0.96505   1.00
C4       0.75024    0.97915    0.74970   1.00
C4       0.74976    1.02085    0.75030   1.00
C3       0.78371    0.95751    0.76058   1.00
C3       0.76797    1.04252    0.78034   1.00
C3       0.71682    0.95738    0.73896   1.00
C3       0.73167    1.04259    0.72020   1.00
C2       0.75012    0.89482    0.75010   1.00
C2       0.75012    1.10518    0.75010   1.00
C3a      0.78380    0.91599    0.76082   1.00
C3       0.76809    1.08382    0.78018   1.00
C3       0.71683    0.91611    0.73918   1.00
C3a      0.73173    1.08403    0.71993   1.00
H1       0.81005    0.97294    0.76866   1.00
H1       0.78194    1.02750    0.80437   1.00
C5       0.82005    0.89410    0.77240   1.00
H1       0.78232    1.09933    0.80375   1.00
H1       0.69056    0.90056    0.73106   1.00
C5       0.71190    1.10535    0.68704   1.00
H1       0.71828    1.02747    0.69592   1.00
H1       0.69013    0.97230    0.73106   1.00
H2       0.68024    1.09837    0.68779   1.00
H2       0.71470    1.13747    0.69059   1.00
N1       0.72872    1.09395    0.64950   1.00
C6       0.72771    1.05810    0.63347   1.00
C6       0.74772    1.11757    0.62449   1.00
C6       0.74644    1.05873    0.59785   1.00
C6       0.75917    1.09656    0.59215   1.00
H3       0.71417    1.03281    0.64673   1.00
H3       0.75310    1.14831    0.62945   1.00
H3       0.75034    1.03436    0.57820   1.00
H3       0.77500    1.10758    0.56720   1.00
H2       0.81392    0.86228    0.77123   1.00
H2       0.84438    0.90001    0.75181   1.00
N1       0.83214    0.90523    0.81169   1.00
C6       0.83517    0.88078    0.84497   1.00
C6       0.84363    0.94285    0.82469   1.00
C6       0.84777    0.90277    0.87629   1.00
C6       0.85296    0.94091    0.86383   1.00
H3       0.82849    0.84992    0.84547   1.00
H3       0.84445    0.96876    0.80663   1.00
H3       0.85267    0.89205    0.90555   1.00
H3       0.86255    0.96505    0.88172   1.00
C4       0.52085    0.74970    0.74976   1.00
C4       0.47915    0.75030    0.75024   1.00
C3       0.54249    0.76058    0.71629   1.00
C3       0.45748    0.78034    0.73203   1.00
C3       0.54262    0.73896    0.78318   1.00
C3       0.45741    0.72020    0.76833   1.00
C2       0.60518    0.75010    0.74988   1.00
C2       0.39482    0.75010    0.74988   1.00
C3a      0.58401    0.76082    0.71620   1.00
C3       0.41618    0.78018    0.73191   1.00
C3       0.58389    0.73918    0.78317   1.00
C3a      0.41597    0.71993    0.76827   1.00
H1       0.52706    0.76866    0.68995   1.00
H1       0.47250    0.80437    0.71806   1.00
C5       0.60590    0.77240    0.67995   1.00
H1       0.40067    0.80375    0.71768   1.00
H1       0.59944    0.73106    0.80944   1.00
C5       0.39465    0.68704    0.78810   1.00
H1       0.47253    0.69592    0.78172   1.00
H1       0.52770    0.73106    0.80987   1.00
H2       0.40163    0.68779    0.81976   1.00
H2       0.36253    0.69059    0.78530   1.00
N1       0.40605    0.64950    0.77128   1.00
C6       0.44190    0.63347    0.77229   1.00
C6       0.38243    0.62449    0.75228   1.00
C6       0.44127    0.59785    0.75356   1.00
C6       0.40344    0.59215    0.74083   1.00
H3       0.46719    0.64673    0.78583   1.00
H3       0.35169    0.62945    0.74690   1.00
H3       0.46564    0.57820    0.74966   1.00
H3       0.39242    0.56720    0.72500   1.00
H2       0.63772    0.77123    0.68608   1.00
H2       0.59999    0.75181    0.65562   1.00
N1       0.59477    0.81169    0.66786   1.00
C6       0.61922    0.84497    0.66483   1.00
C6       0.55715    0.82469    0.65637   1.00
C6       0.59723    0.87629    0.65223   1.00
C6       0.55909    0.86383    0.64704   1.00
H3       0.65008    0.84547    0.67151   1.00
H3       0.53124    0.80663    0.65555   1.00
H3       0.60795    0.90555    0.64733   1.00
H3       0.53495    0.88172    0.63745   1.00
C4       0.97915    0.74970    0.75024   1.00
C4       1.02085    0.75030    0.74976   1.00
C3       0.95751    0.76058    0.78371   1.00
C3       1.04252    0.78034    0.76797   1.00
C3       0.95738    0.73896    0.71682   1.00
C3       1.04259    0.72020    0.73167   1.00
C2       0.89482    0.75010    0.75012   1.00
C2       1.10518    0.75010    0.75012   1.00
C3a      0.91599    0.76082    0.78380   1.00
C3       1.08382    0.78018    0.76809   1.00
C3       0.91611    0.73918    0.71683   1.00
C3a      1.08403    0.71993    0.73173   1.00
H1       0.97294    0.76866    0.81005   1.00
H1       1.02750    0.80437    0.78194   1.00
C5       0.89410    0.77240    0.82005   1.00
H1       1.09933    0.80375    0.78232   1.00
H1       0.90056    0.73106    0.69056   1.00
C5       1.10535    0.68704    0.71190   1.00
H1       1.02747    0.69592    0.71828   1.00
H1       0.97230    0.73106    0.69013   1.00
H2       1.09837    0.68779    0.68024   1.00
H2       1.13747    0.69059    0.71470   1.00
N1       1.09395    0.64950    0.72872   1.00
C6       1.05810    0.63347    0.72771   1.00
C6       1.11757    0.62449    0.74772   1.00
C6       1.05873    0.59785    0.74644   1.00
C6       1.09656    0.59215    0.75917   1.00
H3       1.03281    0.64673    0.71417   1.00
H3       1.14831    0.62945    0.75310   1.00
H3       1.03436    0.57820    0.75034   1.00
H3       1.10758    0.56720    0.77500   1.00
H2       0.86228    0.77123    0.81392   1.00
H2       0.90001    0.75181    0.84438   1.00
N1       0.90523    0.81169    0.83214   1.00
C6       0.88078    0.84497    0.83517   1.00
C6       0.94285    0.82469    0.84363   1.00
C6       0.90277    0.87629    0.84777   1.00
C6       0.94091    0.86383    0.85296   1.00
H3       0.84992    0.84547    0.82849   1.00
H3       0.96876    0.80663    0.84445   1.00
H3       0.89205    0.90555    0.85267   1.00
H3       0.96505    0.88172    0.86255   1.00
C4       0.74976    0.52085    0.74970   1.00
C4       0.75024    0.47915    0.75030   1.00
C3       0.71629    0.54249    0.76058   1.00
C3       0.73203    0.45748    0.78034   1.00
C3       0.78318    0.54262    0.73896   1.00
C3       0.76833    0.45741    0.72020   1.00
C2       0.74988    0.60518    0.75010   1.00
C2       0.74988    0.39482    0.75010   1.00
C3a      0.71620    0.58401    0.76082   1.00
C3       0.73191    0.41618    0.78018   1.00
C3       0.78317    0.58389    0.73918   1.00
C3a      0.76827    0.41597    0.71993   1.00
H1       0.68995    0.52706    0.76866   1.00
H1       0.71806    0.47250    0.80437   1.00
C5       0.67995    0.60590    0.77240   1.00
H1       0.71768    0.40067    0.80375   1.00
H1       0.80944    0.59944    0.73106   1.00
C5       0.78810    0.39465    0.68704   1.00
H1       0.78172    0.47253    0.69592   1.00
H1       0.80987    0.52770    0.73106   1.00
H2       0.81976    0.40163    0.68779   1.00
H2       0.78530    0.36253    0.69059   1.00
N1       0.77128    0.40605    0.64950   1.00
C6       0.77229    0.44190    0.63347   1.00
C6       0.75228    0.38243    0.62449   1.00
C6       0.75356    0.44127    0.59785   1.00
C6       0.74083    0.40344    0.59215   1.00
H3       0.78583    0.46719    0.64673   1.00
H3       0.74690    0.35169    0.62945   1.00
H3       0.74966    0.46564    0.57820   1.00
H3       0.72500    0.39242    0.56720   1.00
H2       0.68608    0.63772    0.77123   1.00
H2       0.65562    0.59999    0.75181   1.00
N1       0.66786    0.59477    0.81169   1.00
C6       0.66483    0.61922    0.84497   1.00
C6       0.65637    0.55715    0.82469   1.00
C6       0.65223    0.59723    0.87629   1.00
C6       0.64704    0.55909    0.86383   1.00
H3       0.67151    0.65008    0.84547   1.00
H3       0.65555    0.53124    0.80663   1.00
H3       0.64733    0.60795    0.90555   1.00
H3       0.63745    0.53495    0.88172   1.00
C4       0.74970    0.74976    0.52085   1.00
C4       0.75030    0.75024    0.47915   1.00
C3       0.76058    0.71629    0.54249   1.00
C3       0.78034    0.73203    0.45748   1.00
C3       0.73896    0.78318    0.54262   1.00
C3       0.72020    0.76833    0.45741   1.00
C2       0.75010    0.74988    0.60518   1.00
C2       0.75010    0.74988    0.39482   1.00
C3a      0.76082    0.71620    0.58401   1.00
C3       0.78018    0.73191    0.41618   1.00
C3       0.73918    0.78317    0.58389   1.00
C3a      0.71993    0.76827    0.41597   1.00
H1       0.76866    0.68995    0.52706   1.00
H1       0.80437    0.71806    0.47250   1.00
C5       0.77240    0.67995    0.60590   1.00
H1       0.80375    0.71768    0.40067   1.00
H1       0.73106    0.80944    0.59944   1.00
C5       0.68704    0.78810    0.39465   1.00
H1       0.69592    0.78172    0.47253   1.00
H1       0.73106    0.80987    0.52770   1.00
H2       0.68779    0.81976    0.40163   1.00
H2       0.69059    0.78530    0.36253   1.00
N1       0.64950    0.77128    0.40605   1.00
C6       0.63347    0.77229    0.44190   1.00
C6       0.62449    0.75228    0.38243   1.00
C6       0.59785    0.75356    0.44127   1.00
C6       0.59215    0.74083    0.40344   1.00
H3       0.64673    0.78583    0.46719   1.00
H3       0.62945    0.74690    0.35169   1.00
H3       0.57820    0.74966    0.46564   1.00
H3       0.56720    0.72500    0.39242   1.00
H2       0.77123    0.68608    0.63772   1.00
H2       0.75181    0.65562    0.59999   1.00
N1       0.81169    0.66786    0.59477   1.00
C6       0.84497    0.66483    0.61922   1.00
C6       0.82469    0.65637    0.55715   1.00
C6       0.87629    0.65223    0.59723   1.00
C6       0.86383    0.64704    0.55909   1.00
H3       0.84547    0.67151    0.65008   1.00
H3       0.80663    0.65555    0.53124   1.00
H3       0.90555    0.64733    0.60795   1.00
H3       0.88172    0.63745    0.53495   1.00
C4       0.24970    0.25024    0.97915   1.00
C4       0.25030    0.24976    1.02085   1.00
C3       0.26058    0.28371    0.95751   1.00
C3       0.28034    0.26797    1.04252   1.00
C3       0.23896    0.21682    0.95738   1.00
C3       0.22020    0.23167    1.04259   1.00
C2       0.25010    0.25012    0.89482   1.00
C2       0.25010    0.25012    1.10518   1.00
C3a      0.26082    0.28380    0.91599   1.00
C3       0.28018    0.26809    1.08382   1.00
C3       0.23918    0.21683    0.91611   1.00
C3a      0.21993    0.23173    1.08403   1.00
H1       0.26866    0.31005    0.97294   1.00
H1       0.30437    0.28194    1.02750   1.00
C5       0.27240    0.32005    0.89410   1.00
H1       0.30375    0.28232    1.09933   1.00
H1       0.23106    0.19056    0.90056   1.00
C5       0.18704    0.21190    1.10535   1.00
H1       0.19592    0.21828    1.02747   1.00
H1       0.23106    0.19013    0.97230   1.00
H2       0.18779    0.18024    1.09837   1.00
H2       0.19059    0.21470    1.13747   1.00
N1       0.14950    0.22872    1.09395   1.00
C6       0.13347    0.22771    1.05810   1.00
C6       0.12449    0.24772    1.11757   1.00
C6       0.09785    0.24644    1.05873   1.00
C6       0.09215    0.25917    1.09656   1.00
H3       0.14673    0.21417    1.03281   1.00
H3       0.12945    0.25310    1.14831   1.00
H3       0.07820    0.25034    1.03436   1.00
H3       0.06720    0.27500    1.10758   1.00
H2       0.27123    0.31392    0.86228   1.00
H2       0.25181    0.34438    0.90001   1.00
N1       0.31169    0.33214    0.90523   1.00
C6       0.34497    0.33517    0.88078   1.00
C6       0.32469    0.34363    0.94285   1.00
C6       0.37629    0.34777    0.90277   1.00
C6       0.36383    0.35296    0.94091   1.00
H3       0.34547    0.32849    0.84992   1.00
H3       0.30663    0.34445    0.96876   1.00
H3       0.40555    0.35267    0.89205   1.00
H3       0.38172    0.36255    0.96505   1.00
C4       0.25024    0.47915    0.74970   1.00
C4       0.24976    0.52085    0.75030   1.00
C3       0.28371    0.45751    0.76058   1.00
C3       0.26797    0.54252    0.78034   1.00
C3       0.21682    0.45738    0.73896   1.00
C3       0.23167    0.54259    0.72020   1.00
C2       0.25012    0.39482    0.75010   1.00
C2       0.25012    0.60518    0.75010   1.00
C3a      0.28380    0.41599    0.76082   1.00
C3       0.26809    0.58382    0.78018   1.00
C3       0.21683    0.41611    0.73918   1.00
C3a      0.23173    0.58403    0.71993   1.00
H1       0.31005    0.47294    0.76866   1.00
H1       0.28194    0.52750    0.80437   1.00
C5       0.32005    0.39410    0.77240   1.00
H1       0.28232    0.59933    0.80375   1.00
H1       0.19056    0.40056    0.73106   1.00
C5       0.21190    0.60535    0.68704   1.00
H1       0.21828    0.52747    0.69592   1.00
H1       0.19013    0.47230    0.73106   1.00
H2       0.18024    0.59837    0.68779   1.00
H2       0.21470    0.63747    0.69059   1.00
N1       0.22872    0.59395    0.64950   1.00
C6       0.22771    0.55810    0.63347   1.00
C6       0.24772    0.61757    0.62449   1.00
C6       0.24644    0.55873    0.59785   1.00
C6       0.25917    0.59656    0.59215   1.00
H3       0.21417    0.53281    0.64673   1.00
H3       0.25310    0.64831    0.62945   1.00
H3       0.25034    0.53436    0.57820   1.00
H3       0.27500    0.60758    0.56720   1.00
H2       0.31392    0.36228    0.77123   1.00
H2       0.34438    0.40001    0.75181   1.00
N1       0.33214    0.40523    0.81169   1.00
C6       0.33517    0.38078    0.84497   1.00
C6       0.34363    0.44285    0.82469   1.00
C6       0.34777    0.40277    0.87629   1.00
C6       0.35296    0.44091    0.86383   1.00
H3       0.32849    0.34992    0.84547   1.00
H3       0.34445    0.46876    0.80663   1.00
H3       0.35267    0.39205    0.90555   1.00
H3       0.36255    0.46505    0.88172   1.00
C4       0.02085    0.24970    0.74976   1.00
C4       -0.02085   0.25030    0.75024   1.00
C3       0.04249    0.26058    0.71629   1.00
C3       -0.04252   0.28034    0.73203   1.00
C3       0.04262    0.23896    0.78318   1.00
C3       -0.04259   0.22020    0.76833   1.00
C2       0.10518    0.25010    0.74988   1.00
C2       -0.10518   0.25010    0.74988   1.00
C3a      0.08401    0.26082    0.71620   1.00
C3       -0.08382   0.28018    0.73191   1.00
C3       0.08389    0.23918    0.78317   1.00
C3a      -0.08403   0.21993    0.76827   1.00
H1       0.02706    0.26866    0.68995   1.00
H1       -0.02750   0.30437    0.71806   1.00
C5       0.10590    0.27240    0.67995   1.00
H1       -0.09933   0.30375    0.71768   1.00
H1       0.09944    0.23106    0.80944   1.00
C5       -0.10535   0.18704    0.78810   1.00
H1       -0.02747   0.19592    0.78172   1.00
H1       0.02770    0.23106    0.80987   1.00
H2       -0.09837   0.18779    0.81976   1.00
H2       -0.13747   0.19059    0.78530   1.00
N1       -0.09395   0.14950    0.77128   1.00
C6       -0.05810   0.13347    0.77229   1.00
C6       -0.11757   0.12449    0.75228   1.00
C6       -0.05873   0.09785    0.75356   1.00
C6       -0.09656   0.09215    0.74083   1.00
H3       -0.03281   0.14673    0.78583   1.00
H3       -0.14831   0.12945    0.74690   1.00
H3       -0.03436   0.07820    0.74966   1.00
H3       -0.10758   0.06720    0.72500   1.00
H2       0.13772    0.27123    0.68608   1.00
H2       0.09999    0.25181    0.65562   1.00
N1       0.09477    0.31169    0.66786   1.00
C6       0.11922    0.34497    0.66483   1.00
C6       0.05715    0.32469    0.65637   1.00
C6       0.09723    0.37629    0.65223   1.00
C6       0.05909    0.36383    0.64704   1.00
H3       0.15008    0.34547    0.67151   1.00
H3       0.03124    0.30663    0.65555   1.00
H3       0.10795    0.40555    0.64733   1.00
H3       0.03495    0.38172    0.63745   1.00
C4       0.47915    0.24970    0.75024   1.00
C4       0.52085    0.25030    0.74976   1.00
C3       0.45751    0.26058    0.78371   1.00
C3       0.54252    0.28034    0.76797   1.00
C3       0.45738    0.23896    0.71682   1.00
C3       0.54259    0.22020    0.73167   1.00
C2       0.39482    0.25010    0.75012   1.00
C2       0.60518    0.25010    0.75012   1.00
C3a      0.41599    0.26082    0.78380   1.00
C3       0.58382    0.28018    0.76809   1.00
C3       0.41611    0.23918    0.71683   1.00
C3a      0.58403    0.21993    0.73173   1.00
H1       0.47294    0.26866    0.81005   1.00
H1       0.52750    0.30437    0.78194   1.00
C5       0.39410    0.27240    0.82005   1.00
H1       0.59933    0.30375    0.78232   1.00
H1       0.40056    0.23106    0.69056   1.00
C5       0.60535    0.18704    0.71190   1.00
H1       0.52747    0.19592    0.71828   1.00
H1       0.47230    0.23106    0.69013   1.00
H2       0.59837    0.18779    0.68024   1.00
H2       0.63747    0.19059    0.71470   1.00
N1       0.59395    0.14950    0.72872   1.00
C6       0.55810    0.13347    0.72771   1.00
C6       0.61757    0.12449    0.74772   1.00
C6       0.55873    0.09785    0.74644   1.00
C6       0.59656    0.09215    0.75917   1.00
H3       0.53281    0.14673    0.71417   1.00
H3       0.64831    0.12945    0.75310   1.00
H3       0.53436    0.07820    0.75034   1.00
H3       0.60758    0.06720    0.77500   1.00
H2       0.36228    0.27123    0.81392   1.00
H2       0.40001    0.25181    0.84438   1.00
N1       0.40523    0.31169    0.83214   1.00
C6       0.38078    0.34497    0.83517   1.00
C6       0.44285    0.32469    0.84363   1.00
C6       0.40277    0.37629    0.84777   1.00
C6       0.44091    0.36383    0.85296   1.00
H3       0.34992    0.34547    0.82849   1.00
H3       0.46876    0.30663    0.84445   1.00
H3       0.39205    0.40555    0.85267   1.00
H3       0.46505    0.38172    0.86255   1.00
C4       0.24976    0.02085    0.74970   1.00
C4       0.25024    -0.02085   0.75030   1.00
C3       0.21629    0.04249    0.76058   1.00
C3       0.23203    -0.04252   0.78034   1.00
C3       0.28318    0.04262    0.73896   1.00
C3       0.26833    -0.04259   0.72020   1.00
C2       0.24988    0.10518    0.75010   1.00
C2       0.24988    -0.10518   0.75010   1.00
C3a      0.21620    0.08401    0.76082   1.00
C3       0.23191    -0.08382   0.78018   1.00
C3       0.28317    0.08389    0.73918   1.00
C3a      0.26827    -0.08403   0.71993   1.00
H1       0.18995    0.02706    0.76866   1.00
H1       0.21806    -0.02750   0.80437   1.00
C5       0.17995    0.10590    0.77240   1.00
H1       0.21768    -0.09933   0.80375   1.00
H1       0.30944    0.09944    0.73106   1.00
C5       0.28810    -0.10535   0.68704   1.00
H1       0.28172    -0.02747   0.69592   1.00
H1       0.30987    0.02770    0.73106   1.00
H2       0.31976    -0.09837   0.68779   1.00
H2       0.28530    -0.13747   0.69059   1.00
N1       0.27128    -0.09395   0.64950   1.00
C6       0.27229    -0.05810   0.63347   1.00
C6       0.25228    -0.11757   0.62449   1.00
C6       0.25356    -0.05873   0.59785   1.00
C6       0.24083    -0.09656   0.59215   1.00
H3       0.28583    -0.03281   0.64673   1.00
H3       0.24690    -0.14831   0.62945   1.00
H3       0.24966    -0.03436   0.57820   1.00
H3       0.22500    -0.10758   0.56720   1.00
H2       0.18608    0.13772    0.77123   1.00
H2       0.15562    0.09999    0.75181   1.00
N1       0.16786    0.09477    0.81169   1.00
C6       0.16483    0.11922    0.84497   1.00
C6       0.15637    0.05715    0.82469   1.00
C6       0.15223    0.09723    0.87629   1.00
C6       0.14704    0.05909    0.86383   1.00
H3       0.17151    0.15008    0.84547   1.00
H3       0.15555    0.03124    0.80663   1.00
H3       0.14733    0.10795    0.90555   1.00
H3       0.13745    0.03495    0.88172   1.00
C4       0.24970    0.24976    0.52085   1.00
C4       0.25030    0.25024    0.47915   1.00
C3       0.26058    0.21629    0.54249   1.00
C3       0.28034    0.23203    0.45748   1.00
C3       0.23896    0.28318    0.54262   1.00
C3       0.22020    0.26833    0.45741   1.00
C2       0.25010    0.24988    0.60518   1.00
C2       0.25010    0.24988    0.39482   1.00
C3a      0.26082    0.21620    0.58401   1.00
C3       0.28018    0.23191    0.41618   1.00
C3       0.23918    0.28317    0.58389   1.00
C3a      0.21993    0.26827    0.41597   1.00
H1       0.26866    0.18995    0.52706   1.00
H1       0.30437    0.21806    0.47250   1.00
C5       0.27240    0.17995    0.60590   1.00
H1       0.30375    0.21768    0.40067   1.00
H1       0.23106    0.30944    0.59944   1.00
C5       0.18704    0.28810    0.39465   1.00
H1       0.19592    0.28172    0.47253   1.00
H1       0.23106    0.30987    0.52770   1.00
H2       0.18779    0.31976    0.40163   1.00
H2       0.19059    0.28530    0.36253   1.00
N1       0.14950    0.27128    0.40605   1.00
C6       0.13347    0.27229    0.44190   1.00
C6       0.12449    0.25228    0.38243   1.00
C6       0.09785    0.25356    0.44127   1.00
C6       0.09215    0.24083    0.40344   1.00
H3       0.14673    0.28583    0.46719   1.00
H3       0.12945    0.24690    0.35169   1.00
H3       0.07820    0.24966    0.46564   1.00
H3       0.06720    0.22500    0.39242   1.00
H2       0.27123    0.18608    0.63772   1.00
H2       0.25181    0.15562    0.59999   1.00
N1       0.31169    0.16786    0.59477   1.00
C6       0.34497    0.16483    0.61922   1.00
C6       0.32469    0.15637    0.55715   1.00
C6       0.37629    0.15223    0.59723   1.00
C6       0.36383    0.14704    0.55909   1.00
H3       0.34547    0.17151    0.65008   1.00
H3       0.30663    0.15555    0.53124   1.00
H3       0.40555    0.14733    0.60795   1.00
H3       0.38172    0.13745    0.53495   1.00
C4       0.24970    0.75024    0.47915   1.00
C4       0.25030    0.74976    0.52085   1.00
C3       0.26058    0.78371    0.45751   1.00
C3       0.28034    0.76797    0.54252   1.00
C3       0.23896    0.71682    0.45738   1.00
C3       0.22020    0.73167    0.54259   1.00
C2       0.25010    0.75012    0.39482   1.00
C2       0.25010    0.75012    0.60518   1.00
C3a      0.26082    0.78380    0.41599   1.00
C3       0.28018    0.76809    0.58382   1.00
C3       0.23918    0.71683    0.41611   1.00
C3a      0.21993    0.73173    0.58403   1.00
H1       0.26866    0.81005    0.47294   1.00
H1       0.30437    0.78194    0.52750   1.00
C5       0.27240    0.82005    0.39410   1.00
H1       0.30375    0.78232    0.59933   1.00
H1       0.23106    0.69056    0.40056   1.00
C5       0.18704    0.71190    0.60535   1.00
H1       0.19592    0.71828    0.52747   1.00
H1       0.23106    0.69013    0.47230   1.00
H2       0.18779    0.68024    0.59837   1.00
H2       0.19059    0.71470    0.63747   1.00
N1       0.14950    0.72872    0.59395   1.00
C6       0.13347    0.72771    0.55810   1.00
C6       0.12449    0.74772    0.61757   1.00
C6       0.09785    0.74644    0.55873   1.00
C6       0.09215    0.75917    0.59656   1.00
H3       0.14673    0.71417    0.53281   1.00
H3       0.12945    0.75310    0.64831   1.00
H3       0.07820    0.75034    0.53436   1.00
H3       0.06720    0.77500    0.60758   1.00
H2       0.27123    0.81392    0.36228   1.00
H2       0.25181    0.84438    0.40001   1.00
N1       0.31169    0.83214    0.40523   1.00
C6       0.34497    0.83517    0.38078   1.00
C6       0.32469    0.84363    0.44285   1.00
C6       0.37629    0.84777    0.40277   1.00
C6       0.36383    0.85296    0.44091   1.00
H3       0.34547    0.82849    0.34992   1.00
H3       0.30663    0.84445    0.46876   1.00
H3       0.40555    0.85267    0.39205   1.00
H3       0.38172    0.86255    0.46505   1.00
C4       0.25024    0.97915    0.24970   1.00
C4       0.24976    1.02085    0.25030   1.00
C3       0.28371    0.95751    0.26058   1.00
C3       0.26797    1.04252    0.28034   1.00
C3       0.21682    0.95738    0.23896   1.00
C3       0.23167    1.04259    0.22020   1.00
C2       0.25012    0.89482    0.25010   1.00
C2       0.25012    1.10518    0.25010   1.00
C3a      0.28380    0.91599    0.26082   1.00
C3       0.26809    1.08382    0.28018   1.00
C3       0.21683    0.91611    0.23918   1.00
C3a      0.23173    1.08403    0.21993   1.00
H1       0.31005    0.97294    0.26866   1.00
H1       0.28194    1.02750    0.30437   1.00
C5       0.32005    0.89410    0.27240   1.00
H1       0.28232    1.09933    0.30375   1.00
H1       0.19056    0.90056    0.23106   1.00
C5       0.21190    1.10535    0.18704   1.00
H1       0.21828    1.02747    0.19592   1.00
H1       0.19013    0.97230    0.23106   1.00
H2       0.18024    1.09837    0.18779   1.00
H2       0.21470    1.13747    0.19059   1.00
N1       0.22872    1.09395    0.14950   1.00
C6       0.22771    1.05810    0.13347   1.00
C6       0.24772    1.11757    0.12449   1.00
C6       0.24644    1.05873    0.09785   1.00
C6       0.25917    1.09656    0.09215   1.00
H3       0.21417    1.03281    0.14673   1.00
H3       0.25310    1.14831    0.12945   1.00
H3       0.25034    1.03436    0.07820   1.00
H3       0.27500    1.10758    0.06720   1.00
H2       0.31392    0.86228    0.27123   1.00
H2       0.34438    0.90001    0.25181   1.00
N1       0.33214    0.90523    0.31169   1.00
C6       0.33517    0.88078    0.34497   1.00
C6       0.34363    0.94285    0.32469   1.00
C6       0.34777    0.90277    0.37629   1.00
C6       0.35296    0.94091    0.36383   1.00
H3       0.32849    0.84992    0.34547   1.00
H3       0.34445    0.96876    0.30663   1.00
H3       0.35267    0.89205    0.40555   1.00
H3       0.36255    0.96505    0.38172   1.00
C4       0.02085    0.74970    0.24976   1.00
C4       -0.02085   0.75030    0.25024   1.00
C3       0.04249    0.76058    0.21629   1.00
C3       -0.04252   0.78034    0.23203   1.00
C3       0.04262    0.73896    0.28318   1.00
C3       -0.04259   0.72020    0.26833   1.00
C2       0.10518    0.75010    0.24988   1.00
C2       -0.10518   0.75010    0.24988   1.00
C3a      0.08401    0.76082    0.21620   1.00
C3       -0.08382   0.78018    0.23191   1.00
C3       0.08389    0.73918    0.28317   1.00
C3a      -0.08403   0.71993    0.26827   1.00
H1       0.02706    0.76866    0.18995   1.00
H1       -0.02750   0.80437    0.21806   1.00
C5       0.10590    0.77240    0.17995   1.00
H1       -0.09933   0.80375    0.21768   1.00
H1       0.09944    0.73106    0.30944   1.00
C5       -0.10535   0.68704    0.28810   1.00
H1       -0.02747   0.69592    0.28172   1.00
H1       0.02770    0.73106    0.30987   1.00
H2       -0.09837   0.68779    0.31976   1.00
H2       -0.13747   0.69059    0.28530   1.00
N1       -0.09395   0.64950    0.27128   1.00
C6       -0.05810   0.63347    0.27229   1.00
C6       -0.11757   0.62449    0.25228   1.00
C6       -0.05873   0.59785    0.25356   1.00
C6       -0.09656   0.59215    0.24083   1.00
H3       -0.03281   0.64673    0.28583   1.00
H3       -0.14831   0.62945    0.24690   1.00
H3       -0.03436   0.57820    0.24966   1.00
H3       -0.10758   0.56720    0.22500   1.00
H2       0.13772    0.77123    0.18608   1.00
H2       0.09999    0.75181    0.15562   1.00
N1       0.09477    0.81169    0.16786   1.00
C6       0.11922    0.84497    0.16483   1.00
C6       0.05715    0.82469    0.15637   1.00
C6       0.09723    0.87629    0.15223   1.00
C6       0.05909    0.86383    0.14704   1.00
H3       0.15008    0.84547    0.17151   1.00
H3       0.03124    0.80663    0.15555   1.00
H3       0.10795    0.90555    0.14733   1.00
H3       0.03495    0.88172    0.13745   1.00
C4       0.47915    0.74970    0.25024   1.00
C4       0.52085    0.75030    0.24976   1.00
C3       0.45751    0.76058    0.28371   1.00
C3       0.54252    0.78034    0.26797   1.00
C3       0.45738    0.73896    0.21682   1.00
C3       0.54259    0.72020    0.23167   1.00
C2       0.39482    0.75010    0.25012   1.00
C2       0.60518    0.75010    0.25012   1.00
C3a      0.41599    0.76082    0.28380   1.00
C3       0.58382    0.78018    0.26809   1.00
C3       0.41611    0.73918    0.21683   1.00
C3a      0.58403    0.71993    0.23173   1.00
H1       0.47294    0.76866    0.31005   1.00
H1       0.52750    0.80437    0.28194   1.00
C5       0.39410    0.77240    0.32005   1.00
H1       0.59933    0.80375    0.28232   1.00
H1       0.40056    0.73106    0.19056   1.00
C5       0.60535    0.68704    0.21190   1.00
H1       0.52747    0.69592    0.21828   1.00
H1       0.47230    0.73106    0.19013   1.00
H2       0.59837    0.68779    0.18024   1.00
H2       0.63747    0.69059    0.21470   1.00
N1       0.59395    0.64950    0.22872   1.00
C6       0.55810    0.63347    0.22771   1.00
C6       0.61757    0.62449    0.24772   1.00
C6       0.55873    0.59785    0.24644   1.00
C6       0.59656    0.59215    0.25917   1.00
H3       0.53281    0.64673    0.21417   1.00
H3       0.64831    0.62945    0.25310   1.00
H3       0.53436    0.57820    0.25034   1.00
H3       0.60758    0.56720    0.27500   1.00
H2       0.36228    0.77123    0.31392   1.00
H2       0.40001    0.75181    0.34438   1.00
N1       0.40523    0.81169    0.33214   1.00
C6       0.38078    0.84497    0.33517   1.00
C6       0.44285    0.82469    0.34363   1.00
C6       0.40277    0.87629    0.34777   1.00
C6       0.44091    0.86383    0.35296   1.00
H3       0.34992    0.84547    0.32849   1.00
H3       0.46876    0.80663    0.34445   1.00
H3       0.39205    0.90555    0.35267   1.00
H3       0.46505    0.88172    0.36255   1.00
C4       0.24976    0.52085    0.24970   1.00
C4       0.25024    0.47915    0.25030   1.00
C3       0.21629    0.54249    0.26058   1.00
C3       0.23203    0.45748    0.28034   1.00
C3       0.28318    0.54262    0.23896   1.00
C3       0.26833    0.45741    0.22020   1.00
C2       0.24988    0.60518    0.25010   1.00
C2       0.24988    0.39482    0.25010   1.00
C3a      0.21620    0.58401    0.26082   1.00
C3       0.23191    0.41618    0.28018   1.00
C3       0.28317    0.58389    0.23918   1.00
C3a      0.26827    0.41597    0.21993   1.00
H1       0.18995    0.52706    0.26866   1.00
H1       0.21806    0.47250    0.30437   1.00
C5       0.17995    0.60590    0.27240   1.00
H1       0.21768    0.40067    0.30375   1.00
H1       0.30944    0.59944    0.23106   1.00
C5       0.28810    0.39465    0.18704   1.00
H1       0.28172    0.47253    0.19592   1.00
H1       0.30987    0.52770    0.23106   1.00
H2       0.31976    0.40163    0.18779   1.00
H2       0.28530    0.36253    0.19059   1.00
N1       0.27128    0.40605    0.14950   1.00
C6       0.27229    0.44190    0.13347   1.00
C6       0.25228    0.38243    0.12449   1.00
C6       0.25356    0.44127    0.09785   1.00
C6       0.24083    0.40344    0.09215   1.00
H3       0.28583    0.46719    0.14673   1.00
H3       0.24690    0.35169    0.12945   1.00
H3       0.24966    0.46564    0.07820   1.00
H3       0.22500    0.39242    0.06720   1.00
H2       0.18608    0.63772    0.27123   1.00
H2       0.15562    0.59999    0.25181   1.00
N1       0.16786    0.59477    0.31169   1.00
C6       0.16483    0.61922    0.34497   1.00
C6       0.15637    0.55715    0.32469   1.00
C6       0.15223    0.59723    0.37629   1.00
C6       0.14704    0.55909    0.36383   1.00
H3       0.17151    0.65008    0.34547   1.00
H3       0.15555    0.53124    0.30663   1.00
H3       0.14733    0.60795    0.40555   1.00
H3       0.13745    0.53495    0.38172   1.00
C4       0.24970    0.74976    0.02085   1.00
C4       0.25030    0.75024    -0.02085   1.00
C3       0.26058    0.71629    0.04249   1.00
C3       0.28034    0.73203    -0.04252   1.00
C3       0.23896    0.78318    0.04262   1.00
C3       0.22020    0.76833    -0.04259   1.00
C2       0.25010    0.74988    0.10518   1.00
C2       0.25010    0.74988    -0.10518   1.00
C3a      0.26082    0.71620    0.08401   1.00
C3       0.28018    0.73191    -0.08382   1.00
C3       0.23918    0.78317    0.08389   1.00
C3a      0.21993    0.76827    -0.08403   1.00
H1       0.26866    0.68995    0.02706   1.00
H1       0.30437    0.71806    -0.02750   1.00
C5       0.27240    0.67995    0.10590   1.00
H1       0.30375    0.71768    -0.09933   1.00
H1       0.23106    0.80944    0.09944   1.00
C5       0.18704    0.78810    -0.10535   1.00
H1       0.19592    0.78172    -0.02747   1.00
H1       0.23106    0.80987    0.02770   1.00
H2       0.18779    0.81976    -0.09837   1.00
H2       0.19059    0.78530    -0.13747   1.00
N1       0.14950    0.77128    -0.09395   1.00
C6       0.13347    0.77229    -0.05810   1.00
C6       0.12449    0.75228    -0.11757   1.00
C6       0.09785    0.75356    -0.05873   1.00
C6       0.09215    0.74083    -0.09656   1.00
H3       0.14673    0.78583    -0.03281   1.00
H3       0.12945    0.74690    -0.14831   1.00
H3       0.07820    0.74966    -0.03436   1.00
H3       0.06720    0.72500    -0.10758   1.00
H2       0.27123    0.68608    0.13772   1.00
H2       0.25181    0.65562    0.09999   1.00
N1       0.31169    0.66786    0.09477   1.00
C6       0.34497    0.66483    0.11922   1.00
C6       0.32469    0.65637    0.05715   1.00
C6       0.37629    0.65223    0.09723   1.00
C6       0.36383    0.64704    0.05909   1.00
H3       0.34547    0.67151    0.15008   1.00
H3       0.30663    0.65555    0.03124   1.00
H3       0.40555    0.64733    0.10795   1.00
H3       0.38172    0.63745    0.03495   1.00
C4       0.74970    0.25024    0.47915   1.00
C4       0.75030    0.24976    0.52085   1.00
C3       0.76058    0.28371    0.45751   1.00
C3       0.78034    0.26797    0.54252   1.00
C3       0.73896    0.21682    0.45738   1.00
C3       0.72020    0.23167    0.54259   1.00
C2       0.75010    0.25012    0.39482   1.00
C2       0.75010    0.25012    0.60518   1.00
C3a      0.76082    0.28380    0.41599   1.00
C3       0.78018    0.26809    0.58382   1.00
C3       0.73918    0.21683    0.41611   1.00
C3a      0.71993    0.23173    0.58403   1.00
H1       0.76866    0.31005    0.47294   1.00
H1       0.80437    0.28194    0.52750   1.00
C5       0.77240    0.32005    0.39410   1.00
H1       0.80375    0.28232    0.59933   1.00
H1       0.73106    0.19056    0.40056   1.00
C5       0.68704    0.21190    0.60535   1.00
H1       0.69592    0.21828    0.52747   1.00
H1       0.73106    0.19013    0.47230   1.00
H2       0.68779    0.18024    0.59837   1.00
H2       0.69059    0.21470    0.63747   1.00
N1       0.64950    0.22872    0.59395   1.00
C6       0.63347    0.22771    0.55810   1.00
C6       0.62449    0.24772    0.61757   1.00
C6       0.59785    0.24644    0.55873   1.00
C6       0.59215    0.25917    0.59656   1.00
H3       0.64673    0.21417    0.53281   1.00
H3       0.62945    0.25310    0.64831   1.00
H3       0.57820    0.25034    0.53436   1.00
H3       0.56720    0.27500    0.60758   1.00
H2       0.77123    0.31392    0.36228   1.00
H2       0.75181    0.34438    0.40001   1.00
N1       0.81169    0.33214    0.40523   1.00
C6       0.84497    0.33517    0.38078   1.00
C6       0.82469    0.34363    0.44285   1.00
C6       0.87629    0.34777    0.40277   1.00
C6       0.86383    0.35296    0.44091   1.00
H3       0.84547    0.32849    0.34992   1.00
H3       0.80663    0.34445    0.46876   1.00
H3       0.90555    0.35267    0.39205   1.00
H3       0.88172    0.36255    0.46505   1.00
C4       0.75024    0.47915    0.24970   1.00
C4       0.74976    0.52085    0.25030   1.00
C3       0.78371    0.45751    0.26058   1.00
C3       0.76797    0.54252    0.28034   1.00
C3       0.71682    0.45738    0.23896   1.00
C3       0.73167    0.54259    0.22020   1.00
C2       0.75012    0.39482    0.25010   1.00
C2       0.75012    0.60518    0.25010   1.00
C3a      0.78380    0.41599    0.26082   1.00
C3       0.76809    0.58382    0.28018   1.00
C3       0.71683    0.41611    0.23918   1.00
C3a      0.73173    0.58403    0.21993   1.00
H1       0.81005    0.47294    0.26866   1.00
H1       0.78194    0.52750    0.30437   1.00
C5       0.82005    0.39410    0.27240   1.00
H1       0.78232    0.59933    0.30375   1.00
H1       0.69056    0.40056    0.23106   1.00
C5       0.71190    0.60535    0.18704   1.00
H1       0.71828    0.52747    0.19592   1.00
H1       0.69013    0.47230    0.23106   1.00
H2       0.68024    0.59837    0.18779   1.00
H2       0.71470    0.63747    0.19059   1.00
N1       0.72872    0.59395    0.14950   1.00
C6       0.72771    0.55810    0.13347   1.00
C6       0.74772    0.61757    0.12449   1.00
C6       0.74644    0.55873    0.09785   1.00
C6       0.75917    0.59656    0.09215   1.00
H3       0.71417    0.53281    0.14673   1.00
H3       0.75310    0.64831    0.12945   1.00
H3       0.75034    0.53436    0.07820   1.00
H3       0.77500    0.60758    0.06720   1.00
H2       0.81392    0.36228    0.27123   1.00
H2       0.84438    0.40001    0.25181   1.00
N1       0.83214    0.40523    0.31169   1.00
C6       0.83517    0.38078    0.34497   1.00
C6       0.84363    0.44285    0.32469   1.00
C6       0.84777    0.40277    0.37629   1.00
C6       0.85296    0.44091    0.36383   1.00
H3       0.82849    0.34992    0.34547   1.00
H3       0.84445    0.46876    0.30663   1.00
H3       0.85267    0.39205    0.40555   1.00
H3       0.86255    0.46505    0.38172   1.00
C4       0.52085    0.24970    0.24976   1.00
C4       0.47915    0.25030    0.25024   1.00
C3       0.54249    0.26058    0.21629   1.00
C3       0.45748    0.28034    0.23203   1.00
C3       0.54262    0.23896    0.28318   1.00
C3       0.45741    0.22020    0.26833   1.00
C2       0.60518    0.25010    0.24988   1.00
C2       0.39482    0.25010    0.24988   1.00
C3a      0.58401    0.26082    0.21620   1.00
C3       0.41618    0.28018    0.23191   1.00
C3       0.58389    0.23918    0.28317   1.00
C3a      0.41597    0.21993    0.26827   1.00
H1       0.52706    0.26866    0.18995   1.00
H1       0.47250    0.30437    0.21806   1.00
C5       0.60590    0.27240    0.17995   1.00
H1       0.40067    0.30375    0.21768   1.00
H1       0.59944    0.23106    0.30944   1.00
C5       0.39465    0.18704    0.28810   1.00
H1       0.47253    0.19592    0.28172   1.00
H1       0.52770    0.23106    0.30987   1.00
H2       0.40163    0.18779    0.31976   1.00
H2       0.36253    0.19059    0.28530   1.00
N1       0.40605    0.14950    0.27128   1.00
C6       0.44190    0.13347    0.27229   1.00
C6       0.38243    0.12449    0.25228   1.00
C6       0.44127    0.09785    0.25356   1.00
C6       0.40344    0.09215    0.24083   1.00
H3       0.46719    0.14673    0.28583   1.00
H3       0.35169    0.12945    0.24690   1.00
H3       0.46564    0.07820    0.24966   1.00
H3       0.39242    0.06720    0.22500   1.00
H2       0.63772    0.27123    0.18608   1.00
H2       0.59999    0.25181    0.15562   1.00
N1       0.59477    0.31169    0.16786   1.00
C6       0.61922    0.34497    0.16483   1.00
C6       0.55715    0.32469    0.15637   1.00
C6       0.59723    0.37629    0.15223   1.00
C6       0.55909    0.36383    0.14704   1.00
H3       0.65008    0.34547    0.17151   1.00
H3       0.53124    0.30663    0.15555   1.00
H3       0.60795    0.40555    0.14733   1.00
H3       0.53495    0.38172    0.13745   1.00
C4       0.97915    0.24970    0.25024   1.00
C4       1.02085    0.25030    0.24976   1.00
C3       0.95751    0.26058    0.28371   1.00
C3       1.04252    0.28034    0.26797   1.00
C3       0.95738    0.23896    0.21682   1.00
C3       1.04259    0.22020    0.23167   1.00
C2       0.89482    0.25010    0.25012   1.00
C2       1.10518    0.25010    0.25012   1.00
C3a      0.91599    0.26082    0.28380   1.00
C3       1.08382    0.28018    0.26809   1.00
C3       0.91611    0.23918    0.21683   1.00
C3a      1.08403    0.21993    0.23173   1.00
H1       0.97294    0.26866    0.31005   1.00
H1       1.02750    0.30437    0.28194   1.00
C5       0.89410    0.27240    0.32005   1.00
H1       1.09933    0.30375    0.28232   1.00
H1       0.90056    0.23106    0.19056   1.00
C5       1.10535    0.18704    0.21190   1.00
H1       1.02747    0.19592    0.21828   1.00
H1       0.97230    0.23106    0.19013   1.00
H2       1.09837    0.18779    0.18024   1.00
H2       1.13747    0.19059    0.21470   1.00
N1       1.09395    0.14950    0.22872   1.00
C6       1.05810    0.13347    0.22771   1.00
C6       1.11757    0.12449    0.24772   1.00
C6       1.05873    0.09785    0.24644   1.00
C6       1.09656    0.09215    0.25917   1.00
H3       1.03281    0.14673    0.21417   1.00
H3       1.14831    0.12945    0.25310   1.00
H3       1.03436    0.07820    0.25034   1.00
H3       1.10758    0.06720    0.27500   1.00
H2       0.86228    0.27123    0.31392   1.00
H2       0.90001    0.25181    0.34438   1.00
N1       0.90523    0.31169    0.33214   1.00
C6       0.88078    0.34497    0.33517   1.00
C6       0.94285    0.32469    0.34363   1.00
C6       0.90277    0.37629    0.34777   1.00
C6       0.94091    0.36383    0.35296   1.00
H3       0.84992    0.34547    0.32849   1.00
H3       0.96876    0.30663    0.34445   1.00
H3       0.89205    0.40555    0.35267   1.00
H3       0.96505    0.38172    0.36255   1.00
C4       0.74976    0.02085    0.24970   1.00
C4       0.75024    -0.02085   0.25030   1.00
C3       0.71629    0.04249    0.26058   1.00
C3       0.73203    -0.04252   0.28034   1.00
C3       0.78318    0.04262    0.23896   1.00
C3       0.76833    -0.04259   0.22020   1.00
C2       0.74988    0.10518    0.25010   1.00
C2       0.74988    -0.10518   0.25010   1.00
C3a      0.71620    0.08401    0.26082   1.00
C3       0.73191    -0.08382   0.28018   1.00
C3       0.78317    0.08389    0.23918   1.00
C3a      0.76827    -0.08403   0.21993   1.00
H1       0.68995    0.02706    0.26866   1.00
H1       0.71806    -0.02750   0.30437   1.00
C5       0.67995    0.10590    0.27240   1.00
H1       0.71768    -0.09933   0.30375   1.00
H1       0.80944    0.09944    0.23106   1.00
C5       0.78810    -0.10535   0.18704   1.00
H1       0.78172    -0.02747   0.19592   1.00
H1       0.80987    0.02770    0.23106   1.00
H2       0.81976    -0.09837   0.18779   1.00
H2       0.78530    -0.13747   0.19059   1.00
N1       0.77128    -0.09395   0.14950   1.00
C6       0.77229    -0.05810   0.13347   1.00
C6       0.75228    -0.11757   0.12449   1.00
C6       0.75356    -0.05873   0.09785   1.00
C6       0.74083    -0.09656   0.09215   1.00
H3       0.78583    -0.03281   0.14673   1.00
H3       0.74690    -0.14831   0.12945   1.00
H3       0.74966    -0.03436   0.07820   1.00
H3       0.72500    -0.10758   0.06720   1.00
H2       0.68608    0.13772    0.27123   1.00
H2       0.65562    0.09999    0.25181   1.00
N1       0.66786    0.09477    0.31169   1.00
C6       0.66483    0.11922    0.34497   1.00
C6       0.65637    0.05715    0.32469   1.00
C6       0.65223    0.09723    0.37629   1.00
C6       0.64704    0.05909    0.36383   1.00
H3       0.67151    0.15008    0.34547   1.00
H3       0.65555    0.03124    0.30663   1.00
H3       0.64733    0.10795    0.40555   1.00
H3       0.63745    0.03495    0.38172   1.00
C4       0.74970    0.24976    0.02085   1.00
C4       0.75030    0.25024    -0.02085   1.00
C3       0.76058    0.21629    0.04249   1.00
C3       0.78034    0.23203    -0.04252   1.00
C3       0.73896    0.28318    0.04262   1.00
C3       0.72020    0.26833    -0.04259   1.00
C2       0.75010    0.24988    0.10518   1.00
C2       0.75010    0.24988    -0.10518   1.00
C3a      0.76082    0.21620    0.08401   1.00
C3       0.78018    0.23191    -0.08382   1.00
C3       0.73918    0.28317    0.08389   1.00
C3a      0.71993    0.26827    -0.08403   1.00
H1       0.76866    0.18995    0.02706   1.00
H1       0.80437    0.21806    -0.02750   1.00
C5       0.77240    0.17995    0.10590   1.00
H1       0.80375    0.21768    -0.09933   1.00
H1       0.73106    0.30944    0.09944   1.00
C5       0.68704    0.28810    -0.10535   1.00
H1       0.69592    0.28172    -0.02747   1.00
H1       0.73106    0.30987    0.02770   1.00
H2       0.68779    0.31976    -0.09837   1.00
H2       0.69059    0.28530    -0.13747   1.00
N1       0.64950    0.27128    -0.09395   1.00
C6       0.63347    0.27229    -0.05810   1.00
C6       0.62449    0.25228    -0.11757   1.00
C6       0.59785    0.25356    -0.05873   1.00
C6       0.59215    0.24083    -0.09656   1.00
H3       0.64673    0.28583    -0.03281   1.00
H3       0.62945    0.24690    -0.14831   1.00
H3       0.57820    0.24966    -0.03436   1.00
H3       0.56720    0.22500    -0.10758   1.00
H2       0.77123    0.18608    0.13772   1.00
H2       0.75181    0.15562    0.09999   1.00
N1       0.81169    0.16786    0.09477   1.00
C6       0.84497    0.16483    0.11922   1.00
C6       0.82469    0.15637    0.05715   1.00
C6       0.87629    0.15223    0.09723   1.00
C6       0.86383    0.14704    0.05909   1.00
H3       0.84547    0.17151    0.15008   1.00
H3       0.80663    0.15555    0.03124   1.00
H3       0.90555    0.14733    0.10795   1.00
H3       0.88172    0.13745    0.03495   1.00
C4       0.91470    0.91524    1.14415   1.00
C4       0.91530    0.91476    1.18585   1.00
C3       0.92558    0.94871    1.12251   1.00
C3       0.94534    0.93297    1.20752   1.00
C3       0.90396    0.88182    1.12238   1.00
C3       0.88520    0.89667    1.20759   1.00
C2       0.91510    0.91512    1.05982   1.00
C2       0.91510    0.91512    1.27018   1.00
C3a      0.92582    0.94880    1.08099   1.00
C3       0.94518    0.93309    1.24882   1.00
C3       0.90418    0.88183    1.08111   1.00
C3a      0.88493    0.89673    1.24903   1.00
H1       0.93366    0.97505    1.13794   1.00
H1       0.96937    0.94694    1.19250   1.00
C5       0.93740    0.98505    1.05910   1.00
H1       0.96875    0.94732    1.26433   1.00
H1       0.89606    0.85556    1.06556   1.00
C5       0.85204    0.87690    1.27035   1.00
H1       0.86092    0.88328    1.19247   1.00
H1       0.89606    0.85513    1.13730   1.00
H2       0.85279    0.84524    1.26337   1.00
H2       0.85559    0.87970    1.30247   1.00
N1       0.81450    0.89372    1.25895   1.00
C6       0.79847    0.89271    1.22310   1.00
C6       0.78949    0.91272    1.28257   1.00
C6       0.76285    0.91144    1.22373   1.00
C6       0.75715    0.92417    1.26156   1.00
H3       0.81173    0.87917    1.19781   1.00
H3       0.79445    0.91810    1.31331   1.00
H3       0.74320    0.91534    1.19936   1.00
H3       0.73220    0.94000    1.27258   1.00
H2       0.93623    0.97892    1.02728   1.00
H2       0.91681    1.00938    1.06501   1.00
N1       0.97669    0.99714    1.07023   1.00
C6       1.00997    1.00017    1.04578   1.00
C6       0.98969    1.00863    1.10785   1.00
C6       1.04129    1.01277    1.06777   1.00
C6       1.02883    1.01796    1.10591   1.00
H3       1.01047    0.99349    1.01492   1.00
H3       0.97163    1.00945    1.13376   1.00
H3       1.07055    1.01767    1.05705   1.00
H3       1.04672    1.02755    1.13005   1.00
C4       0.91524    1.14415    0.91470   1.00
C4       0.91476    1.18585    0.91530   1.00
C3       0.94871    1.12251    0.92558   1.00
C3       0.93297    1.20752    0.94534   1.00
C3       0.88182    1.12238    0.90396   1.00
C3       0.89667    1.20759    0.88520   1.00
C2       0.91512    1.05982    0.91510   1.00
C2       0.91512    1.27018    0.91510   1.00
C3a      0.94880    1.08099    0.92582   1.00
C3       0.93309    1.24882    0.94518   1.00
C3       0.88183    1.08111    0.90418   1.00
C3a      0.89673    1.24903    0.88493   1.00
H1       0.97505    1.13794    0.93366   1.00
H1       0.94694    1.19250    0.96937   1.00
C5       0.98505    1.05910    0.93740   1.00
H1       0.94732    1.26433    0.96875   1.00
H1       0.85556    1.06556    0.89606   1.00
C5       0.87690    1.27035    0.85204   1.00
H1       0.88328    1.19247    0.86092   1.00
H1       0.85513    1.13730    0.89606   1.00
H2       0.84524    1.26337    0.85279   1.00
H2       0.87970    1.30247    0.85559   1.00
N1       0.89372    1.25895    0.81450   1.00
C6       0.89271    1.22310    0.79847   1.00
C6       0.91272    1.28257    0.78949   1.00
C6       0.91144    1.22373    0.76285   1.00
C6       0.92417    1.26156    0.75715   1.00
H3       0.87917    1.19781    0.81173   1.00
H3       0.91810    1.31331    0.79445   1.00
H3       0.91534    1.19936    0.74320   1.00
H3       0.94000    1.27258    0.73220   1.00
H2       0.97892    1.02728    0.93623   1.00
H2       1.00938    1.06501    0.91681   1.00
N1       0.99714    1.07023    0.97669   1.00
C6       1.00017    1.04578    1.00997   1.00
C6       1.00863    1.10785    0.98969   1.00
C6       1.01277    1.06777    1.04129   1.00
C6       1.01796    1.10591    1.02883   1.00
H3       0.99349    1.01492    1.01047   1.00
H3       1.00945    1.13376    0.97163   1.00
H3       1.01767    1.05705    1.07055   1.00
H3       1.02755    1.13005    1.04672   1.00
C4       0.68585    0.91470    0.91476   1.00
C4       0.64415    0.91530    0.91524   1.00
C3       0.70749    0.92558    0.88129   1.00
C3       0.62248    0.94534    0.89703   1.00
C3       0.70762    0.90396    0.94818   1.00
C3       0.62241    0.88520    0.93333   1.00
C2       0.77018    0.91510    0.91488   1.00
C2       0.55982    0.91510    0.91488   1.00
C3a      0.74901    0.92582    0.88120   1.00
C3       0.58118    0.94518    0.89691   1.00
C3       0.74889    0.90418    0.94817   1.00
C3a      0.58097    0.88493    0.93327   1.00
H1       0.69206    0.93366    0.85495   1.00
H1       0.63750    0.96937    0.88306   1.00
C5       0.77090    0.93740    0.84495   1.00
H1       0.56567    0.96875    0.88268   1.00
H1       0.76444    0.89606    0.97444   1.00
C5       0.55965    0.85204    0.95310   1.00
H1       0.63753    0.86092    0.94672   1.00
H1       0.69270    0.89606    0.97487   1.00
H2       0.56663    0.85279    0.98476   1.00
H2       0.52753    0.85559    0.95030   1.00
N1       0.57105    0.81450    0.93628   1.00
C6       0.60690    0.79847    0.93729   1.00
C6       0.54743    0.78949    0.91728   1.00
C6       0.60627    0.76285    0.91856   1.00
C6       0.56844    0.75715    0.90583   1.00
H3       0.63219    0.81173    0.95083   1.00
H3       0.51669    0.79445    0.91190   1.00
H3       0.63064    0.74320    0.91466   1.00
H3       0.55742    0.73220    0.89000   1.00
H2       0.80272    0.93623    0.85108   1.00
H2       0.76499    0.91681    0.82062   1.00
N1       0.75977    0.97669    0.83286   1.00
C6       0.78422    1.00997    0.82983   1.00
C6       0.72215    0.98969    0.82137   1.00
C6       0.76223    1.04129    0.81723   1.00
C6       0.72409    1.02883    0.81204   1.00
H3       0.81508    1.01047    0.83651   1.00
H3       0.69624    0.97163    0.82055   1.00
H3       0.77295    1.07055    0.81233   1.00
H3       0.69995    1.04672    0.80245   1.00
C4       1.14415    0.91470    0.91524   1.00
C4       1.18585    0.91530    0.91476   1.00
C3       1.12251    0.92558    0.94871   1.00
C3       1.20752    0.94534    0.93297   1.00
C3       1.12238    0.90396    0.88182   1.00
C3       1.20759    0.88520    0.89667   1.00
C2       1.05982    0.91510    0.91512   1.00
C2       1.27018    0.91510    0.91512   1.00
C3a      1.08099    0.92582    0.94880   1.00
C3       1.24882    0.94518    0.93309   1.00
C3       1.08111    0.90418    0.88183   1.00
C3a      1.24903    0.88493    0.89673   1.00
H1       1.13794    0.93366    0.97505   1.00
H1       1.19250    0.96937    0.94694   1.00
C5       1.05910    0.93740    0.98505   1.00
H1       1.26433    0.96875    0.94732   1.00
H1       1.06556    0.89606    0.85556   1.00
C5       1.27035    0.85204    0.87690   1.00
H1       1.19247    0.86092    0.88328   1.00
H1       1.13730    0.89606    0.85513   1.00
H2       1.26337    0.85279    0.84524   1.00
H2       1.30247    0.85559    0.87970   1.00
N1       1.25895    0.81450    0.89372   1.00
C6       1.22310    0.79847    0.89271   1.00
C6       1.28257    0.78949    0.91272   1.00
C6       1.22373    0.76285    0.91144   1.00
C6       1.26156    0.75715    0.92417   1.00
H3       1.19781    0.81173    0.87917   1.00
H3       1.31331    0.79445    0.91810   1.00
H3       1.19936    0.74320    0.91534   1.00
H3       1.27258    0.73220    0.94000   1.00
H2       1.02728    0.93623    0.97892   1.00
H2       1.06501    0.91681    1.00938   1.00
N1       1.07023    0.97669    0.99714   1.00
C6       1.04578    1.00997    1.00017   1.00
C6       1.10785    0.98969    1.00863   1.00
C6       1.06777    1.04129    1.01277   1.00
C6       1.10591    1.02883    1.01796   1.00
H3       1.01492    1.01047    0.99349   1.00
H3       1.13376    0.97163    1.00945   1.00
H3       1.05705    1.07055    1.01767   1.00
H3       1.13005    1.04672    1.02755   1.00
C4       0.91476    0.68585    0.91470   1.00
C4       0.91524    0.64415    0.91530   1.00
C3       0.88129    0.70749    0.92558   1.00
C3       0.89703    0.62248    0.94534   1.00
C3       0.94818    0.70762    0.90396   1.00
C3       0.93333    0.62241    0.88520   1.00
C2       0.91488    0.77018    0.91510   1.00
C2       0.91488    0.55982    0.91510   1.00
C3a      0.88120    0.74901    0.92582   1.00
C3       0.89691    0.58118    0.94518   1.00
C3       0.94817    0.74889    0.90418   1.00
C3a      0.93327    0.58097    0.88493   1.00
H1       0.85495    0.69206    0.93366   1.00
H1       0.88306    0.63750    0.96937   1.00
C5       0.84495    0.77090    0.93740   1.00
H1       0.88268    0.56567    0.96875   1.00
H1       0.97444    0.76444    0.89606   1.00
C5       0.95310    0.55965    0.85204   1.00
H1       0.94672    0.63753    0.86092   1.00
H1       0.97487    0.69270    0.89606   1.00
H2       0.98476    0.56663    0.85279   1.00
H2       0.95030    0.52753    0.85559   1.00
N1       0.93628    0.57105    0.81450   1.00
C6       0.93729    0.60690    0.79847   1.00
C6       0.91728    0.54743    0.78949   1.00
C6       0.91856    0.60627    0.76285   1.00
C6       0.90583    0.56844    0.75715   1.00
H3       0.95083    0.63219    0.81173   1.00
H3       0.91190    0.51669    0.79445   1.00
H3       0.91466    0.63064    0.74320   1.00
H3       0.89000    0.55742    0.73220   1.00
H2       0.85108    0.80272    0.93623   1.00
H2       0.82062    0.76499    0.91681   1.00
N1       0.83286    0.75977    0.97669   1.00
C6       0.82983    0.78422    1.00997   1.00
C6       0.82137    0.72215    0.98969   1.00
C6       0.81723    0.76223    1.04129   1.00
C6       0.81204    0.72409    1.02883   1.00
H3       0.83651    0.81508    1.01047   1.00
H3       0.82055    0.69624    0.97163   1.00
H3       0.81233    0.77295    1.07055   1.00
H3       0.80245    0.69995    1.04672   1.00
C4       0.91470    0.91476    0.68585   1.00
C4       0.91530    0.91524    0.64415   1.00
C3       0.92558    0.88129    0.70749   1.00
C3       0.94534    0.89703    0.62248   1.00
C3       0.90396    0.94818    0.70762   1.00
C3       0.88520    0.93333    0.62241   1.00
C2       0.91510    0.91488    0.77018   1.00
C2       0.91510    0.91488    0.55982   1.00
C3a      0.92582    0.88120    0.74901   1.00
C3       0.94518    0.89691    0.58118   1.00
C3       0.90418    0.94817    0.74889   1.00
C3a      0.88493    0.93327    0.58097   1.00
H1       0.93366    0.85495    0.69206   1.00
H1       0.96937    0.88306    0.63750   1.00
C5       0.93740    0.84495    0.77090   1.00
H1       0.96875    0.88268    0.56567   1.00
H1       0.89606    0.97444    0.76444   1.00
C5       0.85204    0.95310    0.55965   1.00
H1       0.86092    0.94672    0.63753   1.00
H1       0.89606    0.97487    0.69270   1.00
H2       0.85279    0.98476    0.56663   1.00
H2       0.85559    0.95030    0.52753   1.00
N1       0.81450    0.93628    0.57105   1.00
C6       0.79847    0.93729    0.60690   1.00
C6       0.78949    0.91728    0.54743   1.00
C6       0.76285    0.91856    0.60627   1.00
C6       0.75715    0.90583    0.56844   1.00
H3       0.81173    0.95083    0.63219   1.00
H3       0.79445    0.91190    0.51669   1.00
H3       0.74320    0.91466    0.63064   1.00
H3       0.73220    0.89000    0.55742   1.00
H2       0.93623    0.85108    0.80272   1.00
H2       0.91681    0.82062    0.76499   1.00
N1       0.97669    0.83286    0.75977   1.00
C6       1.00997    0.82983    0.78422   1.00
C6       0.98969    0.82137    0.72215   1.00
C6       1.04129    0.81723    0.76223   1.00
C6       1.02883    0.81204    0.72409   1.00
H3       1.01047    0.83651    0.81508   1.00
H3       0.97163    0.82055    0.69624   1.00
H3       1.07055    0.81233    0.77295   1.00
H3       1.04672    0.80245    0.69995   1.00
C4       0.41470    0.41524    1.14415   1.00
C4       0.41530    0.41476    1.18585   1.00
C3       0.42558    0.44871    1.12251   1.00
C3       0.44534    0.43297    1.20752   1.00
C3       0.40396    0.38182    1.12238   1.00
C3       0.38520    0.39667    1.20759   1.00
C2       0.41510    0.41512    1.05982   1.00
C2       0.41510    0.41512    1.27018   1.00
C3a      0.42582    0.44880    1.08099   1.00
C3       0.44518    0.43309    1.24882   1.00
C3       0.40418    0.38183    1.08111   1.00
C3a      0.38493    0.39673    1.24903   1.00
H1       0.43366    0.47505    1.13794   1.00
H1       0.46937    0.44694    1.19250   1.00
C5       0.43740    0.48505    1.05910   1.00
H1       0.46875    0.44732    1.26433   1.00
H1       0.39606    0.35556    1.06556   1.00
C5       0.35204    0.37690    1.27035   1.00
H1       0.36092    0.38328    1.19247   1.00
H1       0.39606    0.35513    1.13730   1.00
H2       0.35279    0.34524    1.26337   1.00
H2       0.35559    0.37970    1.30247   1.00
N1       0.31450    0.39372    1.25895   1.00
C6       0.29847    0.39271    1.22310   1.00
C6       0.28949    0.41272    1.28257   1.00
C6       0.26285    0.41144    1.22373   1.00
C6       0.25715    0.42417    1.26156   1.00
H3       0.31173    0.37917    1.19781   1.00
H3       0.29445    0.41810    1.31331   1.00
H3       0.24320    0.41534    1.19936   1.00
H3       0.23220    0.44000    1.27258   1.00
H2       0.43623    0.47892    1.02728   1.00
H2       0.41681    0.50938    1.06501   1.00
N1       0.47669    0.49714    1.07023   1.00
C6       0.50997    0.50017    1.04578   1.00
C6       0.48969    0.50863    1.10785   1.00
C6       0.54129    0.51277    1.06777   1.00
C6       0.52883    0.51796    1.10591   1.00
H3       0.51047    0.49349    1.01492   1.00
H3       0.47163    0.50945    1.13376   1.00
H3       0.57055    0.51767    1.05705   1.00
H3       0.54672    0.52755    1.13005   1.00
C4       0.41524    0.64415    0.91470   1.00
C4       0.41476    0.68585    0.91530   1.00
C3       0.44871    0.62251    0.92558   1.00
C3       0.43297    0.70752    0.94534   1.00
C3       0.38182    0.62238    0.90396   1.00
C3       0.39667    0.70759    0.88520   1.00
C2       0.41512    0.55982    0.91510   1.00
C2       0.41512    0.77018    0.91510   1.00
C3a      0.44880    0.58099    0.92582   1.00
C3       0.43309    0.74882    0.94518   1.00
C3       0.38183    0.58111    0.90418   1.00
C3a      0.39673    0.74903    0.88493   1.00
H1       0.47505    0.63794    0.93366   1.00
H1       0.44694    0.69250    0.96937   1.00
C5       0.48505    0.55910    0.93740   1.00
H1       0.44732    0.76433    0.96875   1.00
H1       0.35556    0.56556    0.89606   1.00
C5       0.37690    0.77035    0.85204   1.00
H1       0.38328    0.69247    0.86092   1.00
H1       0.35513    0.63730    0.89606   1.00
H2       0.34524    0.76337    0.85279   1.00
H2       0.37970    0.80247    0.85559   1.00
N1       0.39372    0.75895    0.81450   1.00
C6       0.39271    0.72310    0.79847   1.00
C6       0.41272    0.78257    0.78949   1.00
C6       0.41144    0.72373    0.76285   1.00
C6       0.42417    0.76156    0.75715   1.00
H3       0.37917    0.69781    0.81173   1.00
H3       0.41810    0.81331    0.79445   1.00
H3       0.41534    0.69936    0.74320   1.00
H3       0.44000    0.77258    0.73220   1.00
H2       0.47892    0.52728    0.93623   1.00
H2       0.50938    0.56501    0.91681   1.00
N1       0.49714    0.57023    0.97669   1.00
C6       0.50017    0.54578    1.00997   1.00
C6       0.50863    0.60785    0.98969   1.00
C6       0.51277    0.56777    1.04129   1.00
C6       0.51796    0.60591    1.02883   1.00
H3       0.49349    0.51492    1.01047   1.00
H3       0.50945    0.63376    0.97163   1.00
H3       0.51767    0.55705    1.07055   1.00
H3       0.52755    0.63005    1.04672   1.00
C4       0.18585    0.41470    0.91476   1.00
C4       0.14415    0.41530    0.91524   1.00
C3       0.20749    0.42558    0.88129   1.00
C3       0.12248    0.44534    0.89703   1.00
C3       0.20762    0.40396    0.94818   1.00
C3       0.12241    0.38520    0.93333   1.00
C2       0.27018    0.41510    0.91488   1.00
C2       0.05982    0.41510    0.91488   1.00
C3a      0.24901    0.42582    0.88120   1.00
C3       0.08118    0.44518    0.89691   1.00
C3       0.24889    0.40418    0.94817   1.00
C3a      0.08097    0.38493    0.93327   1.00
H1       0.19206    0.43366    0.85495   1.00
H1       0.13750    0.46937    0.88306   1.00
C5       0.27090    0.43740    0.84495   1.00
H1       0.06567    0.46875    0.88268   1.00
H1       0.26444    0.39606    0.97444   1.00
C5       0.05965    0.35204    0.95310   1.00
H1       0.13753    0.36092    0.94672   1.00
H1       0.19270    0.39606    0.97487   1.00
H2       0.06663    0.35279    0.98476   1.00
H2       0.02753    0.35559    0.95030   1.00
N1       0.07105    0.31450    0.93628   1.00
C6       0.10690    0.29847    0.93729   1.00
C6       0.04743    0.28949    0.91728   1.00
C6       0.10627    0.26285    0.91856   1.00
C6       0.06844    0.25715    0.90583   1.00
H3       0.13219    0.31173    0.95083   1.00
H3       0.01669    0.29445    0.91190   1.00
H3       0.13064    0.24320    0.91466   1.00
H3       0.05742    0.23220    0.89000   1.00
H2       0.30272    0.43623    0.85108   1.00
H2       0.26499    0.41681    0.82062   1.00
N1       0.25977    0.47669    0.83286   1.00
C6       0.28422    0.50997    0.82983   1.00
C6       0.22215    0.48969    0.82137   1.00
C6       0.26223    0.54129    0.81723   1.00
C6       0.22409    0.52883    0.81204   1.00
H3       0.31508    0.51047    0.83651   1.00
H3       0.19624    0.47163    0.82055   1.00
H3       0.27295    0.57055    0.81233   1.00
H3       0.19995    0.54672    0.80245   1.00
C4       0.64415    0.41470    0.91524   1.00
C4       0.68585    0.41530    0.91476   1.00
C3       0.62251    0.42558    0.94871   1.00
C3       0.70752    0.44534    0.93297   1.00
C3       0.62238    0.40396    0.88182   1.00
C3       0.70759    0.38520    0.89667   1.00
C2       0.55982    0.41510    0.91512   1.00
C2       0.77018    0.41510    0.91512   1.00
C3a      0.58099    0.42582    0.94880   1.00
C3       0.74882    0.44518    0.93309   1.00
C3       0.58111    0.40418    0.88183   1.00
C3a      0.74903    0.38493    0.89673   1.00
H1       0.63794    0.43366    0.97505   1.00
H1       0.69250    0.46937    0.94694   1.00
C5       0.55910    0.43740    0.98505   1.00
H1       0.76433    0.46875    0.94732   1.00
H1       0.56556    0.39606    0.85556   1.00
C5       0.77035    0.35204    0.87690   1.00
H1       0.69247    0.36092    0.88328   1.00
H1       0.63730    0.39606    0.85513   1.00
H2       0.76337    0.35279    0.84524   1.00
H2       0.80247    0.35559    0.87970   1.00
N1       0.75895    0.31450    0.89372   1.00
C6       0.72310    0.29847    0.89271   1.00
C6       0.78257    0.28949    0.91272   1.00
C6       0.72373    0.26285    0.91144   1.00
C6       0.76156    0.25715    0.92417   1.00
H3       0.69781    0.31173    0.87917   1.00
H3       0.81331    0.29445    0.91810   1.00
H3       0.69936    0.24320    0.91534   1.00
H3       0.77258    0.23220    0.94000   1.00
H2       0.52728    0.43623    0.97892   1.00
H2       0.56501    0.41681    1.00938   1.00
N1       0.57023    0.47669    0.99714   1.00
C6       0.54578    0.50997    1.00017   1.00
C6       0.60785    0.48969    1.00863   1.00
C6       0.56777    0.54129    1.01277   1.00
C6       0.60591    0.52883    1.01796   1.00
H3       0.51492    0.51047    0.99349   1.00
H3       0.63376    0.47163    1.00945   1.00
H3       0.55705    0.57055    1.01767   1.00
H3       0.63005    0.54672    1.02755   1.00
C4       0.41476    0.18585    0.91470   1.00
C4       0.41524    0.14415    0.91530   1.00
C3       0.38129    0.20749    0.92558   1.00
C3       0.39703    0.12248    0.94534   1.00
C3       0.44818    0.20762    0.90396   1.00
C3       0.43333    0.12241    0.88520   1.00
C2       0.41488    0.27018    0.91510   1.00
C2       0.41488    0.05982    0.91510   1.00
C3a      0.38120    0.24901    0.92582   1.00
C3       0.39691    0.08118    0.94518   1.00
C3       0.44817    0.24889    0.90418   1.00
C3a      0.43327    0.08097    0.88493   1.00
H1       0.35495    0.19206    0.93366   1.00
H1       0.38306    0.13750    0.96937   1.00
C5       0.34495    0.27090    0.93740   1.00
H1       0.38268    0.06567    0.96875   1.00
H1       0.47444    0.26444    0.89606   1.00
C5       0.45310    0.05965    0.85204   1.00
H1       0.44672    0.13753    0.86092   1.00
H1       0.47487    0.19270    0.89606   1.00
H2       0.48476    0.06663    0.85279   1.00
H2       0.45030    0.02753    0.85559   1.00
N1       0.43628    0.07105    0.81450   1.00
C6       0.43729    0.10690    0.79847   1.00
C6       0.41728    0.04743    0.78949   1.00
C6       0.41856    0.10627    0.76285   1.00
C6       0.40583    0.06844    0.75715   1.00
H3       0.45083    0.13219    0.81173   1.00
H3       0.41190    0.01669    0.79445   1.00
H3       0.41466    0.13064    0.74320   1.00
H3       0.39000    0.05742    0.73220   1.00
H2       0.35108    0.30272    0.93623   1.00
H2       0.32062    0.26499    0.91681   1.00
N1       0.33286    0.25977    0.97669   1.00
C6       0.32983    0.28422    1.00997   1.00
C6       0.32137    0.22215    0.98969   1.00
C6       0.31723    0.26223    1.04129   1.00
C6       0.31204    0.22409    1.02883   1.00
H3       0.33651    0.31508    1.01047   1.00
H3       0.32055    0.19624    0.97163   1.00
H3       0.31233    0.27295    1.07055   1.00
H3       0.30245    0.19995    1.04672   1.00
C4       0.41470    0.41476    0.68585   1.00
C4       0.41530    0.41524    0.64415   1.00
C3       0.42558    0.38129    0.70749   1.00
C3       0.44534    0.39703    0.62248   1.00
C3       0.40396    0.44818    0.70762   1.00
C3       0.38520    0.43333    0.62241   1.00
C2       0.41510    0.41488    0.77018   1.00
C2       0.41510    0.41488    0.55982   1.00
C3a      0.42582    0.38120    0.74901   1.00
C3       0.44518    0.39691    0.58118   1.00
C3       0.40418    0.44817    0.74889   1.00
C3a      0.38493    0.43327    0.58097   1.00
H1       0.43366    0.35495    0.69206   1.00
H1       0.46937    0.38306    0.63750   1.00
C5       0.43740    0.34495    0.77090   1.00
H1       0.46875    0.38268    0.56567   1.00
H1       0.39606    0.47444    0.76444   1.00
C5       0.35204    0.45310    0.55965   1.00
H1       0.36092    0.44672    0.63753   1.00
H1       0.39606    0.47487    0.69270   1.00
H2       0.35279    0.48476    0.56663   1.00
H2       0.35559    0.45030    0.52753   1.00
N1       0.31450    0.43628    0.57105   1.00
C6       0.29847    0.43729    0.60690   1.00
C6       0.28949    0.41728    0.54743   1.00
C6       0.26285    0.41856    0.60627   1.00
C6       0.25715    0.40583    0.56844   1.00
H3       0.31173    0.45083    0.63219   1.00
H3       0.29445    0.41190    0.51669   1.00
H3       0.24320    0.41466    0.63064   1.00
H3       0.23220    0.39000    0.55742   1.00
H2       0.43623    0.35108    0.80272   1.00
H2       0.41681    0.32062    0.76499   1.00
N1       0.47669    0.33286    0.75977   1.00
C6       0.50997    0.32983    0.78422   1.00
C6       0.48969    0.32137    0.72215   1.00
C6       0.54129    0.31723    0.76223   1.00
C6       0.52883    0.31204    0.72409   1.00
H3       0.51047    0.33651    0.81508   1.00
H3       0.47163    0.32055    0.69624   1.00
H3       0.57055    0.31233    0.77295   1.00
H3       0.54672    0.30245    0.69995   1.00
C4       0.41470    0.91524    0.64415   1.00
C4       0.41530    0.91476    0.68585   1.00
C3       0.42558    0.94871    0.62251   1.00
C3       0.44534    0.93297    0.70752   1.00
C3       0.40396    0.88182    0.62238   1.00
C3       0.38520    0.89667    0.70759   1.00
C2       0.41510    0.91512    0.55982   1.00
C2       0.41510    0.91512    0.77018   1.00
C3a      0.42582    0.94880    0.58099   1.00
C3       0.44518    0.93309    0.74882   1.00
C3       0.40418    0.88183    0.58111   1.00
C3a      0.38493    0.89673    0.74903   1.00
H1       0.43366    0.97505    0.63794   1.00
H1       0.46937    0.94694    0.69250   1.00
C5       0.43740    0.98505    0.55910   1.00
H1       0.46875    0.94732    0.76433   1.00
H1       0.39606    0.85556    0.56556   1.00
C5       0.35204    0.87690    0.77035   1.00
H1       0.36092    0.88328    0.69247   1.00
H1       0.39606    0.85513    0.63730   1.00
H2       0.35279    0.84524    0.76337   1.00
H2       0.35559    0.87970    0.80247   1.00
N1       0.31450    0.89372    0.75895   1.00
C6       0.29847    0.89271    0.72310   1.00
C6       0.28949    0.91272    0.78257   1.00
C6       0.26285    0.91144    0.72373   1.00
C6       0.25715    0.92417    0.76156   1.00
H3       0.31173    0.87917    0.69781   1.00
H3       0.29445    0.91810    0.81331   1.00
H3       0.24320    0.91534    0.69936   1.00
H3       0.23220    0.94000    0.77258   1.00
H2       0.43623    0.97892    0.52728   1.00
H2       0.41681    1.00938    0.56501   1.00
N1       0.47669    0.99714    0.57023   1.00
C6       0.50997    1.00017    0.54578   1.00
C6       0.48969    1.00863    0.60785   1.00
C6       0.54129    1.01277    0.56777   1.00
C6       0.52883    1.01796    0.60591   1.00
H3       0.51047    0.99349    0.51492   1.00
H3       0.47163    1.00945    0.63376   1.00
H3       0.57055    1.01767    0.55705   1.00
H3       0.54672    1.02755    0.63005   1.00
C4       0.41524    1.14415    0.41470   1.00
C4       0.41476    1.18585    0.41530   1.00
C3       0.44871    1.12251    0.42558   1.00
C3       0.43297    1.20752    0.44534   1.00
C3       0.38182    1.12238    0.40396   1.00
C3       0.39667    1.20759    0.38520   1.00
C2       0.41512    1.05982    0.41510   1.00
C2       0.41512    1.27018    0.41510   1.00
C3a      0.44880    1.08099    0.42582   1.00
C3       0.43309    1.24882    0.44518   1.00
C3       0.38183    1.08111    0.40418   1.00
C3a      0.39673    1.24903    0.38493   1.00
H1       0.47505    1.13794    0.43366   1.00
H1       0.44694    1.19250    0.46937   1.00
C5       0.48505    1.05910    0.43740   1.00
H1       0.44732    1.26433    0.46875   1.00
H1       0.35556    1.06556    0.39606   1.00
C5       0.37690    1.27035    0.35204   1.00
H1       0.38328    1.19247    0.36092   1.00
H1       0.35513    1.13730    0.39606   1.00
H2       0.34524    1.26337    0.35279   1.00
H2       0.37970    1.30247    0.35559   1.00
N1       0.39372    1.25895    0.31450   1.00
C6       0.39271    1.22310    0.29847   1.00
C6       0.41272    1.28257    0.28949   1.00
C6       0.41144    1.22373    0.26285   1.00
C6       0.42417    1.26156    0.25715   1.00
H3       0.37917    1.19781    0.31173   1.00
H3       0.41810    1.31331    0.29445   1.00
H3       0.41534    1.19936    0.24320   1.00
H3       0.44000    1.27258    0.23220   1.00
H2       0.47892    1.02728    0.43623   1.00
H2       0.50938    1.06501    0.41681   1.00
N1       0.49714    1.07023    0.47669   1.00
C6       0.50017    1.04578    0.50997   1.00
C6       0.50863    1.10785    0.48969   1.00
C6       0.51277    1.06777    0.54129   1.00
C6       0.51796    1.10591    0.52883   1.00
H3       0.49349    1.01492    0.51047   1.00
H3       0.50945    1.13376    0.47163   1.00
H3       0.51767    1.05705    0.57055   1.00
H3       0.52755    1.13005    0.54672   1.00
C4       0.18585    0.91470    0.41476   1.00
C4       0.14415    0.91530    0.41524   1.00
C3       0.20749    0.92558    0.38129   1.00
C3       0.12248    0.94534    0.39703   1.00
C3       0.20762    0.90396    0.44818   1.00
C3       0.12241    0.88520    0.43333   1.00
C2       0.27018    0.91510    0.41488   1.00
C2       0.05982    0.91510    0.41488   1.00
C3a      0.24901    0.92582    0.38120   1.00
C3       0.08118    0.94518    0.39691   1.00
C3       0.24889    0.90418    0.44817   1.00
C3a      0.08097    0.88493    0.43327   1.00
H1       0.19206    0.93366    0.35495   1.00
H1       0.13750    0.96937    0.38306   1.00
C5       0.27090    0.93740    0.34495   1.00
H1       0.06567    0.96875    0.38268   1.00
H1       0.26444    0.89606    0.47444   1.00
C5       0.05965    0.85204    0.45310   1.00
H1       0.13753    0.86092    0.44672   1.00
H1       0.19270    0.89606    0.47487   1.00
H2       0.06663    0.85279    0.48476   1.00
H2       0.02753    0.85559    0.45030   1.00
N1       0.07105    0.81450    0.43628   1.00
C6       0.10690    0.79847    0.43729   1.00
C6       0.04743    0.78949    0.41728   1.00
C6       0.10627    0.76285    0.41856   1.00
C6       0.06844    0.75715    0.40583   1.00
H3       0.13219    0.81173    0.45083   1.00
H3       0.01669    0.79445    0.41190   1.00
H3       0.13064    0.74320    0.41466   1.00
H3       0.05742    0.73220    0.39000   1.00
H2       0.30272    0.93623    0.35108   1.00
H2       0.26499    0.91681    0.32062   1.00
N1       0.25977    0.97669    0.33286   1.00
C6       0.28422    1.00997    0.32983   1.00
C6       0.22215    0.98969    0.32137   1.00
C6       0.26223    1.04129    0.31723   1.00
C6       0.22409    1.02883    0.31204   1.00
H3       0.31508    1.01047    0.33651   1.00
H3       0.19624    0.97163    0.32055   1.00
H3       0.27295    1.07055    0.31233   1.00
H3       0.19995    1.04672    0.30245   1.00
C4       0.64415    0.91470    0.41524   1.00
C4       0.68585    0.91530    0.41476   1.00
C3       0.62251    0.92558    0.44871   1.00
C3       0.70752    0.94534    0.43297   1.00
C3       0.62238    0.90396    0.38182   1.00
C3       0.70759    0.88520    0.39667   1.00
C2       0.55982    0.91510    0.41512   1.00
C2       0.77018    0.91510    0.41512   1.00
C3a      0.58099    0.92582    0.44880   1.00
C3       0.74882    0.94518    0.43309   1.00
C3       0.58111    0.90418    0.38183   1.00
C3a      0.74903    0.88493    0.39673   1.00
H1       0.63794    0.93366    0.47505   1.00
H1       0.69250    0.96937    0.44694   1.00
C5       0.55910    0.93740    0.48505   1.00
H1       0.76433    0.96875    0.44732   1.00
H1       0.56556    0.89606    0.35556   1.00
C5       0.77035    0.85204    0.37690   1.00
H1       0.69247    0.86092    0.38328   1.00
H1       0.63730    0.89606    0.35513   1.00
H2       0.76337    0.85279    0.34524   1.00
H2       0.80247    0.85559    0.37970   1.00
N1       0.75895    0.81450    0.39372   1.00
C6       0.72310    0.79847    0.39271   1.00
C6       0.78257    0.78949    0.41272   1.00
C6       0.72373    0.76285    0.41144   1.00
C6       0.76156    0.75715    0.42417   1.00
H3       0.69781    0.81173    0.37917   1.00
H3       0.81331    0.79445    0.41810   1.00
H3       0.69936    0.74320    0.41534   1.00
H3       0.77258    0.73220    0.44000   1.00
H2       0.52728    0.93623    0.47892   1.00
H2       0.56501    0.91681    0.50938   1.00
N1       0.57023    0.97669    0.49714   1.00
C6       0.54578    1.00997    0.50017   1.00
C6       0.60785    0.98969    0.50863   1.00
C6       0.56777    1.04129    0.51277   1.00
C6       0.60591    1.02883    0.51796   1.00
H3       0.51492    1.01047    0.49349   1.00
H3       0.63376    0.97163    0.50945   1.00
H3       0.55705    1.07055    0.51767   1.00
H3       0.63005    1.04672    0.52755   1.00
C4       0.41476    0.68585    0.41470   1.00
C4       0.41524    0.64415    0.41530   1.00
C3       0.38129    0.70749    0.42558   1.00
C3       0.39703    0.62248    0.44534   1.00
C3       0.44818    0.70762    0.40396   1.00
C3       0.43333    0.62241    0.38520   1.00
C2       0.41488    0.77018    0.41510   1.00
C2       0.41488    0.55982    0.41510   1.00
C3a      0.38120    0.74901    0.42582   1.00
C3       0.39691    0.58118    0.44518   1.00
C3       0.44817    0.74889    0.40418   1.00
C3a      0.43327    0.58097    0.38493   1.00
H1       0.35495    0.69206    0.43366   1.00
H1       0.38306    0.63750    0.46937   1.00
C5       0.34495    0.77090    0.43740   1.00
H1       0.38268    0.56567    0.46875   1.00
H1       0.47444    0.76444    0.39606   1.00
C5       0.45310    0.55965    0.35204   1.00
H1       0.44672    0.63753    0.36092   1.00
H1       0.47487    0.69270    0.39606   1.00
H2       0.48476    0.56663    0.35279   1.00
H2       0.45030    0.52753    0.35559   1.00
N1       0.43628    0.57105    0.31450   1.00
C6       0.43729    0.60690    0.29847   1.00
C6       0.41728    0.54743    0.28949   1.00
C6       0.41856    0.60627    0.26285   1.00
C6       0.40583    0.56844    0.25715   1.00
H3       0.45083    0.63219    0.31173   1.00
H3       0.41190    0.51669    0.29445   1.00
H3       0.41466    0.63064    0.24320   1.00
H3       0.39000    0.55742    0.23220   1.00
H2       0.35108    0.80272    0.43623   1.00
H2       0.32062    0.76499    0.41681   1.00
N1       0.33286    0.75977    0.47669   1.00
C6       0.32983    0.78422    0.50997   1.00
C6       0.32137    0.72215    0.48969   1.00
C6       0.31723    0.76223    0.54129   1.00
C6       0.31204    0.72409    0.52883   1.00
H3       0.33651    0.81508    0.51047   1.00
H3       0.32055    0.69624    0.47163   1.00
H3       0.31233    0.77295    0.57055   1.00
H3       0.30245    0.69995    0.54672   1.00
C4       0.41470    0.91476    0.18585   1.00
C4       0.41530    0.91524    0.14415   1.00
C3       0.42558    0.88129    0.20749   1.00
C3       0.44534    0.89703    0.12248   1.00
C3       0.40396    0.94818    0.20762   1.00
C3       0.38520    0.93333    0.12241   1.00
C2       0.41510    0.91488    0.27018   1.00
C2       0.41510    0.91488    0.05982   1.00
C3a      0.42582    0.88120    0.24901   1.00
C3       0.44518    0.89691    0.08118   1.00
C3       0.40418    0.94817    0.24889   1.00
C3a      0.38493    0.93327    0.08097   1.00
H1       0.43366    0.85495    0.19206   1.00
H1       0.46937    0.88306    0.13750   1.00
C5       0.43740    0.84495    0.27090   1.00
H1       0.46875    0.88268    0.06567   1.00
H1       0.39606    0.97444    0.26444   1.00
C5       0.35204    0.95310    0.05965   1.00
H1       0.36092    0.94672    0.13753   1.00
H1       0.39606    0.97487    0.19270   1.00
H2       0.35279    0.98476    0.06663   1.00
H2       0.35559    0.95030    0.02753   1.00
N1       0.31450    0.93628    0.07105   1.00
C6       0.29847    0.93729    0.10690   1.00
C6       0.28949    0.91728    0.04743   1.00
C6       0.26285    0.91856    0.10627   1.00
C6       0.25715    0.90583    0.06844   1.00
H3       0.31173    0.95083    0.13219   1.00
H3       0.29445    0.91190    0.01669   1.00
H3       0.24320    0.91466    0.13064   1.00
H3       0.23220    0.89000    0.05742   1.00
H2       0.43623    0.85108    0.30272   1.00
H2       0.41681    0.82062    0.26499   1.00
N1       0.47669    0.83286    0.25977   1.00
C6       0.50997    0.82983    0.28422   1.00
C6       0.48969    0.82137    0.22215   1.00
C6       0.54129    0.81723    0.26223   1.00
C6       0.52883    0.81204    0.22409   1.00
H3       0.51047    0.83651    0.31508   1.00
H3       0.47163    0.82055    0.19624   1.00
H3       0.57055    0.81233    0.27295   1.00
H3       0.54672    0.80245    0.19995   1.00
C4       0.91470    0.41524    0.64415   1.00
C4       0.91530    0.41476    0.68585   1.00
C3       0.92558    0.44871    0.62251   1.00
C3       0.94534    0.43297    0.70752   1.00
C3       0.90396    0.38182    0.62238   1.00
C3       0.88520    0.39667    0.70759   1.00
C2       0.91510    0.41512    0.55982   1.00
C2       0.91510    0.41512    0.77018   1.00
C3a      0.92582    0.44880    0.58099   1.00
C3       0.94518    0.43309    0.74882   1.00
C3       0.90418    0.38183    0.58111   1.00
C3a      0.88493    0.39673    0.74903   1.00
H1       0.93366    0.47505    0.63794   1.00
H1       0.96937    0.44694    0.69250   1.00
C5       0.93740    0.48505    0.55910   1.00
H1       0.96875    0.44732    0.76433   1.00
H1       0.89606    0.35556    0.56556   1.00
C5       0.85204    0.37690    0.77035   1.00
H1       0.86092    0.38328    0.69247   1.00
H1       0.89606    0.35513    0.63730   1.00
H2       0.85279    0.34524    0.76337   1.00
H2       0.85559    0.37970    0.80247   1.00
N1       0.81450    0.39372    0.75895   1.00
C6       0.79847    0.39271    0.72310   1.00
C6       0.78949    0.41272    0.78257   1.00
C6       0.76285    0.41144    0.72373   1.00
C6       0.75715    0.42417    0.76156   1.00
H3       0.81173    0.37917    0.69781   1.00
H3       0.79445    0.41810    0.81331   1.00
H3       0.74320    0.41534    0.69936   1.00
H3       0.73220    0.44000    0.77258   1.00
H2       0.93623    0.47892    0.52728   1.00
H2       0.91681    0.50938    0.56501   1.00
N1       0.97669    0.49714    0.57023   1.00
C6       1.00997    0.50017    0.54578   1.00
C6       0.98969    0.50863    0.60785   1.00
C6       1.04129    0.51277    0.56777   1.00
C6       1.02883    0.51796    0.60591   1.00
H3       1.01047    0.49349    0.51492   1.00
H3       0.97163    0.50945    0.63376   1.00
H3       1.07055    0.51767    0.55705   1.00
H3       1.04672    0.52755    0.63005   1.00
C4       0.91524    0.64415    0.41470   1.00
C4       0.91476    0.68585    0.41530   1.00
C3       0.94871    0.62251    0.42558   1.00
C3       0.93297    0.70752    0.44534   1.00
C3       0.88182    0.62238    0.40396   1.00
C3       0.89667    0.70759    0.38520   1.00
C2       0.91512    0.55982    0.41510   1.00
C2       0.91512    0.77018    0.41510   1.00
C3a      0.94880    0.58099    0.42582   1.00
C3       0.93309    0.74882    0.44518   1.00
C3       0.88183    0.58111    0.40418   1.00
C3a      0.89673    0.74903    0.38493   1.00
H1       0.97505    0.63794    0.43366   1.00
H1       0.94694    0.69250    0.46937   1.00
C5       0.98505    0.55910    0.43740   1.00
H1       0.94732    0.76433    0.46875   1.00
H1       0.85556    0.56556    0.39606   1.00
C5       0.87690    0.77035    0.35204   1.00
H1       0.88328    0.69247    0.36092   1.00
H1       0.85513    0.63730    0.39606   1.00
H2       0.84524    0.76337    0.35279   1.00
H2       0.87970    0.80247    0.35559   1.00
N1       0.89372    0.75895    0.31450   1.00
C6       0.89271    0.72310    0.29847   1.00
C6       0.91272    0.78257    0.28949   1.00
C6       0.91144    0.72373    0.26285   1.00
C6       0.92417    0.76156    0.25715   1.00
H3       0.87917    0.69781    0.31173   1.00
H3       0.91810    0.81331    0.29445   1.00
H3       0.91534    0.69936    0.24320   1.00
H3       0.94000    0.77258    0.23220   1.00
H2       0.97892    0.52728    0.43623   1.00
H2       1.00938    0.56501    0.41681   1.00
N1       0.99714    0.57023    0.47669   1.00
C6       1.00017    0.54578    0.50997   1.00
C6       1.00863    0.60785    0.48969   1.00
C6       1.01277    0.56777    0.54129   1.00
C6       1.01796    0.60591    0.52883   1.00
H3       0.99349    0.51492    0.51047   1.00
H3       1.00945    0.63376    0.47163   1.00
H3       1.01767    0.55705    0.57055   1.00
H3       1.02755    0.63005    0.54672   1.00
C4       0.68585    0.41470    0.41476   1.00
C4       0.64415    0.41530    0.41524   1.00
C3       0.70749    0.42558    0.38129   1.00
C3       0.62248    0.44534    0.39703   1.00
C3       0.70762    0.40396    0.44818   1.00
C3       0.62241    0.38520    0.43333   1.00
C2       0.77018    0.41510    0.41488   1.00
C2       0.55982    0.41510    0.41488   1.00
C3a      0.74901    0.42582    0.38120   1.00
C3       0.58118    0.44518    0.39691   1.00
C3       0.74889    0.40418    0.44817   1.00
C3a      0.58097    0.38493    0.43327   1.00
H1       0.69206    0.43366    0.35495   1.00
H1       0.63750    0.46937    0.38306   1.00
C5       0.77090    0.43740    0.34495   1.00
H1       0.56567    0.46875    0.38268   1.00
H1       0.76444    0.39606    0.47444   1.00
C5       0.55965    0.35204    0.45310   1.00
H1       0.63753    0.36092    0.44672   1.00
H1       0.69270    0.39606    0.47487   1.00
H2       0.56663    0.35279    0.48476   1.00
H2       0.52753    0.35559    0.45030   1.00
N1       0.57105    0.31450    0.43628   1.00
C6       0.60690    0.29847    0.43729   1.00
C6       0.54743    0.28949    0.41728   1.00
C6       0.60627    0.26285    0.41856   1.00
C6       0.56844    0.25715    0.40583   1.00
H3       0.63219    0.31173    0.45083   1.00
H3       0.51669    0.29445    0.41190   1.00
H3       0.63064    0.24320    0.41466   1.00
H3       0.55742    0.23220    0.39000   1.00
H2       0.80272    0.43623    0.35108   1.00
H2       0.76499    0.41681    0.32062   1.00
N1       0.75977    0.47669    0.33286   1.00
C6       0.78422    0.50997    0.32983   1.00
C6       0.72215    0.48969    0.32137   1.00
C6       0.76223    0.54129    0.31723   1.00
C6       0.72409    0.52883    0.31204   1.00
H3       0.81508    0.51047    0.33651   1.00
H3       0.69624    0.47163    0.32055   1.00
H3       0.77295    0.57055    0.31233   1.00
H3       0.69995    0.54672    0.30245   1.00
C4       1.14415    0.41470    0.41524   1.00
C4       1.18585    0.41530    0.41476   1.00
C3       1.12251    0.42558    0.44871   1.00
C3       1.20752    0.44534    0.43297   1.00
C3       1.12238    0.40396    0.38182   1.00
C3       1.20759    0.38520    0.39667   1.00
C2       1.05982    0.41510    0.41512   1.00
C2       1.27018    0.41510    0.41512   1.00
C3a      1.08099    0.42582    0.44880   1.00
C3       1.24882    0.44518    0.43309   1.00
C3       1.08111    0.40418    0.38183   1.00
C3a      1.24903    0.38493    0.39673   1.00
H1       1.13794    0.43366    0.47505   1.00
H1       1.19250    0.46937    0.44694   1.00
C5       1.05910    0.43740    0.48505   1.00
H1       1.26433    0.46875    0.44732   1.00
H1       1.06556    0.39606    0.35556   1.00
C5       1.27035    0.35204    0.37690   1.00
H1       1.19247    0.36092    0.38328   1.00
H1       1.13730    0.39606    0.35513   1.00
H2       1.26337    0.35279    0.34524   1.00
H2       1.30247    0.35559    0.37970   1.00
N1       1.25895    0.31450    0.39372   1.00
C6       1.22310    0.29847    0.39271   1.00
C6       1.28257    0.28949    0.41272   1.00
C6       1.22373    0.26285    0.41144   1.00
C6       1.26156    0.25715    0.42417   1.00
H3       1.19781    0.31173    0.37917   1.00
H3       1.31331    0.29445    0.41810   1.00
H3       1.19936    0.24320    0.41534   1.00
H3       1.27258    0.23220    0.44000   1.00
H2       1.02728    0.43623    0.47892   1.00
H2       1.06501    0.41681    0.50938   1.00
N1       1.07023    0.47669    0.49714   1.00
C6       1.04578    0.50997    0.50017   1.00
C6       1.10785    0.48969    0.50863   1.00
C6       1.06777    0.54129    0.51277   1.00
C6       1.10591    0.52883    0.51796   1.00
H3       1.01492    0.51047    0.49349   1.00
H3       1.13376    0.47163    0.50945   1.00
H3       1.05705    0.57055    0.51767   1.00
H3       1.13005    0.54672    0.52755   1.00
C4       0.91476    0.18585    0.41470   1.00
C4       0.91524    0.14415    0.41530   1.00
C3       0.88129    0.20749    0.42558   1.00
C3       0.89703    0.12248    0.44534   1.00
C3       0.94818    0.20762    0.40396   1.00
C3       0.93333    0.12241    0.38520   1.00
C2       0.91488    0.27018    0.41510   1.00
C2       0.91488    0.05982    0.41510   1.00
C3a      0.88120    0.24901    0.42582   1.00
C3       0.89691    0.08118    0.44518   1.00
C3       0.94817    0.24889    0.40418   1.00
C3a      0.93327    0.08097    0.38493   1.00
H1       0.85495    0.19206    0.43366   1.00
H1       0.88306    0.13750    0.46937   1.00
C5       0.84495    0.27090    0.43740   1.00
H1       0.88268    0.06567    0.46875   1.00
H1       0.97444    0.26444    0.39606   1.00
C5       0.95310    0.05965    0.35204   1.00
H1       0.94672    0.13753    0.36092   1.00
H1       0.97487    0.19270    0.39606   1.00
H2       0.98476    0.06663    0.35279   1.00
H2       0.95030    0.02753    0.35559   1.00
N1       0.93628    0.07105    0.31450   1.00
C6       0.93729    0.10690    0.29847   1.00
C6       0.91728    0.04743    0.28949   1.00
C6       0.91856    0.10627    0.26285   1.00
C6       0.90583    0.06844    0.25715   1.00
H3       0.95083    0.13219    0.31173   1.00
H3       0.91190    0.01669    0.29445   1.00
H3       0.91466    0.13064    0.24320   1.00
H3       0.89000    0.05742    0.23220   1.00
H2       0.85108    0.30272    0.43623   1.00
H2       0.82062    0.26499    0.41681   1.00
N1       0.83286    0.25977    0.47669   1.00
C6       0.82983    0.28422    0.50997   1.00
C6       0.82137    0.22215    0.48969   1.00
C6       0.81723    0.26223    0.54129   1.00
C6       0.81204    0.22409    0.52883   1.00
H3       0.83651    0.31508    0.51047   1.00
H3       0.82055    0.19624    0.47163   1.00
H3       0.81233    0.27295    0.57055   1.00
H3       0.80245    0.19995    0.54672   1.00
C4       0.91470    0.41476    0.18585   1.00
C4       0.91530    0.41524    0.14415   1.00
C3       0.92558    0.38129    0.20749   1.00
C3       0.94534    0.39703    0.12248   1.00
C3       0.90396    0.44818    0.20762   1.00
C3       0.88520    0.43333    0.12241   1.00
C2       0.91510    0.41488    0.27018   1.00
C2       0.91510    0.41488    0.05982   1.00
C3a      0.92582    0.38120    0.24901   1.00
C3       0.94518    0.39691    0.08118   1.00
C3       0.90418    0.44817    0.24889   1.00
C3a      0.88493    0.43327    0.08097   1.00
H1       0.93366    0.35495    0.19206   1.00
H1       0.96937    0.38306    0.13750   1.00
C5       0.93740    0.34495    0.27090   1.00
H1       0.96875    0.38268    0.06567   1.00
H1       0.89606    0.47444    0.26444   1.00
C5       0.85204    0.45310    0.05965   1.00
H1       0.86092    0.44672    0.13753   1.00
H1       0.89606    0.47487    0.19270   1.00
H2       0.85279    0.48476    0.06663   1.00
H2       0.85559    0.45030    0.02753   1.00
N1       0.81450    0.43628    0.07105   1.00
C6       0.79847    0.43729    0.10690   1.00
C6       0.78949    0.41728    0.04743   1.00
C6       0.76285    0.41856    0.10627   1.00
C6       0.75715    0.40583    0.06844   1.00
H3       0.81173    0.45083    0.13219   1.00
H3       0.79445    0.41190    0.01669   1.00
H3       0.74320    0.41466    0.13064   1.00
H3       0.73220    0.39000    0.05742   1.00
H2       0.93623    0.35108    0.30272   1.00
H2       0.91681    0.32062    0.26499   1.00
N1       0.97669    0.33286    0.25977   1.00
C6       1.00997    0.32983    0.28422   1.00
C6       0.98969    0.32137    0.22215   1.00
C6       1.04129    0.31723    0.26223   1.00
C6       1.02883    0.31204    0.22409   1.00
H3       1.01047    0.33651    0.31508   1.00
H3       0.97163    0.32055    0.19624   1.00
H3       1.07055    0.31233    0.27295   1.00
H3       1.04672    0.30245    0.19995   1.00
