data_IRMOF10_SG202_interpen_Ligand7cp_label_m.

_audit_creation_method             'generated by an auxiliary program of Tobunporous'

_symmetry_space_group_name_H-M     'P 1'
_symmetry_Int_Tables_number        1
_symmetry_cell_setting             triclinic

_cell_length_a                    34.2800
_cell_length_b                    34.2800
_cell_length_c                    34.2800
_cell_angle_alpha                 90.0000
_cell_angle_beta                  90.0000
_cell_angle_gamma                 90.0000

loop_
_atom_site_label
_atom_site_fract_x
_atom_site_fract_y
_atom_site_fract_z
_atom_site_occupancy
O1       0.75000    0.75000    0.75000   1.00
Zn1      0.71720    0.78280    0.78280   1.00
Zn1      0.78280    0.71720    0.78280   1.00
Zn1      0.78280    0.78280    0.71720   1.00
Zn1      0.71720    0.71720    0.71720   1.00
O2       0.72650    0.77350    0.83820   1.00
O2       0.72650    0.83820    0.77350   1.00
O2       0.66180    0.77350    0.77350   1.00
O2       0.77350    0.72650    0.83820   1.00
O2       0.83820    0.72650    0.77350   1.00
O2       0.77350    0.66180    0.77350   1.00
O2       0.77350    0.83820    0.72650   1.00
O2       0.83820    0.77350    0.72650   1.00
O2       0.77350    0.77350    0.66180   1.00
O2       0.66180    0.72650    0.72650   1.00
O2       0.72650    0.66180    0.72650   1.00
O2       0.72650    0.72650    0.66180   1.00
C1       0.75000    0.75000    0.85520   1.00
C1       0.75000    0.85520    0.75000   1.00
C1       0.64480    0.75000    0.75000   1.00
C1       0.85520    0.75000    0.75000   1.00
C1       0.75000    0.64480    0.75000   1.00
C1       0.75000    0.75000    0.64480   1.00
O1       0.25000    0.25000    0.75000   1.00
Zn1      0.21720    0.28280    0.78280   1.00
Zn1      0.28280    0.21720    0.78280   1.00
Zn1      0.28280    0.28280    0.71720   1.00
Zn1      0.21720    0.21720    0.71720   1.00
O2       0.22650    0.27350    0.83820   1.00
O2       0.22650    0.33820    0.77350   1.00
O2       0.16180    0.27350    0.77350   1.00
O2       0.27350    0.22650    0.83820   1.00
O2       0.33820    0.22650    0.77350   1.00
O2       0.27350    0.16180    0.77350   1.00
O2       0.27350    0.33820    0.72650   1.00
O2       0.33820    0.27350    0.72650   1.00
O2       0.27350    0.27350    0.66180   1.00
O2       0.16180    0.22650    0.72650   1.00
O2       0.22650    0.16180    0.72650   1.00
O2       0.22650    0.22650    0.66180   1.00
C1       0.25000    0.25000    0.85520   1.00
C1       0.25000    0.35520    0.75000   1.00
C1       0.14480    0.25000    0.75000   1.00
C1       0.35520    0.25000    0.75000   1.00
C1       0.25000    0.14480    0.75000   1.00
C1       0.25000    0.25000    0.64480   1.00
O1       0.25000    0.75000    0.25000   1.00
Zn1      0.21720    0.78280    0.28280   1.00
Zn1      0.28280    0.71720    0.28280   1.00
Zn1      0.28280    0.78280    0.21720   1.00
Zn1      0.21720    0.71720    0.21720   1.00
O2       0.22650    0.77350    0.33820   1.00
O2       0.22650    0.83820    0.27350   1.00
O2       0.16180    0.77350    0.27350   1.00
O2       0.27350    0.72650    0.33820   1.00
O2       0.33820    0.72650    0.27350   1.00
O2       0.27350    0.66180    0.27350   1.00
O2       0.27350    0.83820    0.22650   1.00
O2       0.33820    0.77350    0.22650   1.00
O2       0.27350    0.77350    0.16180   1.00
O2       0.16180    0.72650    0.22650   1.00
O2       0.22650    0.66180    0.22650   1.00
O2       0.22650    0.72650    0.16180   1.00
C1       0.25000    0.75000    0.35520   1.00
C1       0.25000    0.85520    0.25000   1.00
C1       0.14480    0.75000    0.25000   1.00
C1       0.35520    0.75000    0.25000   1.00
C1       0.25000    0.64480    0.25000   1.00
C1       0.25000    0.75000    0.14480   1.00
O1       0.75000    0.25000    0.25000   1.00
Zn1      0.71720    0.28280    0.28280   1.00
Zn1      0.78280    0.21720    0.28280   1.00
Zn1      0.78280    0.28280    0.21720   1.00
Zn1      0.71720    0.21720    0.21720   1.00
O2       0.72650    0.27350    0.33820   1.00
O2       0.72650    0.33820    0.27350   1.00
O2       0.66180    0.27350    0.27350   1.00
O2       0.77350    0.22650    0.33820   1.00
O2       0.83820    0.22650    0.27350   1.00
O2       0.77350    0.16180    0.27350   1.00
O2       0.77350    0.33820    0.22650   1.00
O2       0.83820    0.27350    0.22650   1.00
O2       0.77350    0.27350    0.16180   1.00
O2       0.66180    0.22650    0.22650   1.00
O2       0.72650    0.16180    0.22650   1.00
O2       0.72650    0.22650    0.16180   1.00
C1       0.75000    0.25000    0.35520   1.00
C1       0.75000    0.35520    0.25000   1.00
C1       0.64480    0.25000    0.25000   1.00
C1       0.85520    0.25000    0.25000   1.00
C1       0.75000    0.14480    0.25000   1.00
C1       0.75000    0.25000    0.14480   1.00
O1       0.25000    0.25000    0.25000   1.00
Zn1      0.28280    0.21720    0.21720   1.00
Zn1      0.21720    0.28280    0.21720   1.00
Zn1      0.21720    0.21720    0.28280   1.00
Zn1      0.28280    0.28280    0.28280   1.00
O2       0.27350    0.22650    0.16180   1.00
O2       0.27350    0.16180    0.22650   1.00
O2       0.33820    0.22650    0.22650   1.00
O2       0.22650    0.27350    0.16180   1.00
O2       0.16180    0.27350    0.22650   1.00
O2       0.22650    0.33820    0.22650   1.00
O2       0.22650    0.16180    0.27350   1.00
O2       0.16180    0.22650    0.27350   1.00
O2       0.22650    0.22650    0.33820   1.00
O2       0.33820    0.27350    0.27350   1.00
O2       0.27350    0.33820    0.27350   1.00
O2       0.27350    0.27350    0.33820   1.00
C1       0.25000    0.25000    0.14480   1.00
C1       0.25000    0.14480    0.25000   1.00
C1       0.35520    0.25000    0.25000   1.00
C1       0.14480    0.25000    0.25000   1.00
C1       0.25000    0.35520    0.25000   1.00
C1       0.25000    0.25000    0.35520   1.00
O1       0.75000    0.75000    0.25000   1.00
Zn1      0.78280    0.71720    0.21720   1.00
Zn1      0.71720    0.78280    0.21720   1.00
Zn1      0.71720    0.71720    0.28280   1.00
Zn1      0.78280    0.78280    0.28280   1.00
O2       0.77350    0.72650    0.16180   1.00
O2       0.77350    0.66180    0.22650   1.00
O2       0.83820    0.72650    0.22650   1.00
O2       0.72650    0.77350    0.16180   1.00
O2       0.66180    0.77350    0.22650   1.00
O2       0.72650    0.83820    0.22650   1.00
O2       0.72650    0.66180    0.27350   1.00
O2       0.66180    0.72650    0.27350   1.00
O2       0.72650    0.72650    0.33820   1.00
O2       0.83820    0.77350    0.27350   1.00
O2       0.77350    0.83820    0.27350   1.00
O2       0.77350    0.77350    0.33820   1.00
C1       0.75000    0.75000    0.14480   1.00
C1       0.75000    0.64480    0.25000   1.00
C1       0.85520    0.75000    0.25000   1.00
C1       0.64480    0.75000    0.25000   1.00
C1       0.75000    0.85520    0.25000   1.00
C1       0.75000    0.75000    0.35520   1.00
O1       0.75000    0.25000    0.75000   1.00
Zn1      0.78280    0.21720    0.71720   1.00
Zn1      0.71720    0.28280    0.71720   1.00
Zn1      0.71720    0.21720    0.78280   1.00
Zn1      0.78280    0.28280    0.78280   1.00
O2       0.77350    0.22650    0.66180   1.00
O2       0.77350    0.16180    0.72650   1.00
O2       0.83820    0.22650    0.72650   1.00
O2       0.72650    0.27350    0.66180   1.00
O2       0.66180    0.27350    0.72650   1.00
O2       0.72650    0.33820    0.72650   1.00
O2       0.72650    0.16180    0.77350   1.00
O2       0.66180    0.22650    0.77350   1.00
O2       0.72650    0.22650    0.83820   1.00
O2       0.83820    0.27350    0.77350   1.00
O2       0.77350    0.33820    0.77350   1.00
O2       0.77350    0.27350    0.83820   1.00
C1       0.75000    0.25000    0.64480   1.00
C1       0.75000    0.14480    0.75000   1.00
C1       0.85520    0.25000    0.75000   1.00
C1       0.64480    0.25000    0.75000   1.00
C1       0.75000    0.35520    0.75000   1.00
C1       0.75000    0.25000    0.85520   1.00
O1       0.25000    0.75000    0.75000   1.00
Zn1      0.28280    0.71720    0.71720   1.00
Zn1      0.21720    0.78280    0.71720   1.00
Zn1      0.21720    0.71720    0.78280   1.00
Zn1      0.28280    0.78280    0.78280   1.00
O2       0.27350    0.72650    0.66180   1.00
O2       0.27350    0.66180    0.72650   1.00
O2       0.33820    0.72650    0.72650   1.00
O2       0.22650    0.77350    0.66180   1.00
O2       0.16180    0.77350    0.72650   1.00
O2       0.22650    0.83820    0.72650   1.00
O2       0.22650    0.66180    0.77350   1.00
O2       0.16180    0.72650    0.77350   1.00
O2       0.22650    0.72650    0.83820   1.00
O2       0.33820    0.77350    0.77350   1.00
O2       0.27350    0.83820    0.77350   1.00
O2       0.27350    0.77350    0.83820   1.00
C1       0.25000    0.75000    0.64480   1.00
C1       0.25000    0.64480    0.75000   1.00
C1       0.35520    0.75000    0.75000   1.00
C1       0.14480    0.75000    0.75000   1.00
C1       0.25000    0.85520    0.75000   1.00
C1       0.25000    0.75000    0.85520   1.00
O1       0.91500    0.91500    0.91500   1.00
Zn1      0.88220    0.94780    0.94780   1.00
Zn1      0.94780    0.88220    0.94780   1.00
Zn1      0.94780    0.94780    0.88220   1.00
Zn1      0.88220    0.88220    0.88220   1.00
O2       0.89150    0.93850    1.00320   1.00
O2       0.89150    1.00320    0.93850   1.00
O2       0.82680    0.93850    0.93850   1.00
O2       0.93850    0.89150    1.00320   1.00
O2       1.00320    0.89150    0.93850   1.00
O2       0.93850    0.82680    0.93850   1.00
O2       0.93850    1.00320    0.89150   1.00
O2       1.00320    0.93850    0.89150   1.00
O2       0.93850    0.93850    0.82680   1.00
O2       0.82680    0.89150    0.89150   1.00
O2       0.89150    0.82680    0.89150   1.00
O2       0.89150    0.89150    0.82680   1.00
C1       0.91500    0.91500    1.02020   1.00
C1       0.91500    1.02020    0.91500   1.00
C1       0.80980    0.91500    0.91500   1.00
C1       1.02020    0.91500    0.91500   1.00
C1       0.91500    0.80980    0.91500   1.00
C1       0.91500    0.91500    0.80980   1.00
O1       0.41500    0.41500    0.91500   1.00
Zn1      0.38220    0.44780    0.94780   1.00
Zn1      0.44780    0.38220    0.94780   1.00
Zn1      0.44780    0.44780    0.88220   1.00
Zn1      0.38220    0.38220    0.88220   1.00
O2       0.39150    0.43850    1.00320   1.00
O2       0.39150    0.50320    0.93850   1.00
O2       0.32680    0.43850    0.93850   1.00
O2       0.43850    0.39150    1.00320   1.00
O2       0.50320    0.39150    0.93850   1.00
O2       0.43850    0.32680    0.93850   1.00
O2       0.43850    0.50320    0.89150   1.00
O2       0.50320    0.43850    0.89150   1.00
O2       0.43850    0.43850    0.82680   1.00
O2       0.32680    0.39150    0.89150   1.00
O2       0.39150    0.32680    0.89150   1.00
O2       0.39150    0.39150    0.82680   1.00
C1       0.41500    0.41500    1.02020   1.00
C1       0.41500    0.52020    0.91500   1.00
C1       0.30980    0.41500    0.91500   1.00
C1       0.52020    0.41500    0.91500   1.00
C1       0.41500    0.30980    0.91500   1.00
C1       0.41500    0.41500    0.80980   1.00
O1       0.41500    0.91500    0.41500   1.00
Zn1      0.38220    0.94780    0.44780   1.00
Zn1      0.44780    0.88220    0.44780   1.00
Zn1      0.44780    0.94780    0.38220   1.00
Zn1      0.38220    0.88220    0.38220   1.00
O2       0.39150    0.93850    0.50320   1.00
O2       0.39150    1.00320    0.43850   1.00
O2       0.32680    0.93850    0.43850   1.00
O2       0.43850    0.89150    0.50320   1.00
O2       0.50320    0.89150    0.43850   1.00
O2       0.43850    0.82680    0.43850   1.00
O2       0.43850    1.00320    0.39150   1.00
O2       0.50320    0.93850    0.39150   1.00
O2       0.43850    0.93850    0.32680   1.00
O2       0.32680    0.89150    0.39150   1.00
O2       0.39150    0.82680    0.39150   1.00
O2       0.39150    0.89150    0.32680   1.00
C1       0.41500    0.91500    0.52020   1.00
C1       0.41500    1.02020    0.41500   1.00
C1       0.30980    0.91500    0.41500   1.00
C1       0.52020    0.91500    0.41500   1.00
C1       0.41500    0.80980    0.41500   1.00
C1       0.41500    0.91500    0.30980   1.00
O1       0.91500    0.41500    0.41500   1.00
Zn1      0.88220    0.44780    0.44780   1.00
Zn1      0.94780    0.38220    0.44780   1.00
Zn1      0.94780    0.44780    0.38220   1.00
Zn1      0.88220    0.38220    0.38220   1.00
O2       0.89150    0.43850    0.50320   1.00
O2       0.89150    0.50320    0.43850   1.00
O2       0.82680    0.43850    0.43850   1.00
O2       0.93850    0.39150    0.50320   1.00
O2       1.00320    0.39150    0.43850   1.00
O2       0.93850    0.32680    0.43850   1.00
O2       0.93850    0.50320    0.39150   1.00
O2       1.00320    0.43850    0.39150   1.00
O2       0.93850    0.43850    0.32680   1.00
O2       0.82680    0.39150    0.39150   1.00
O2       0.89150    0.32680    0.39150   1.00
O2       0.89150    0.39150    0.32680   1.00
C1       0.91500    0.41500    0.52020   1.00
C1       0.91500    0.52020    0.41500   1.00
C1       0.80980    0.41500    0.41500   1.00
C1       1.02020    0.41500    0.41500   1.00
C1       0.91500    0.30980    0.41500   1.00
C1       0.91500    0.41500    0.30980   1.00
O1       0.41500    0.41500    0.41500   1.00
Zn1      0.44780    0.38220    0.38220   1.00
Zn1      0.38220    0.44780    0.38220   1.00
Zn1      0.38220    0.38220    0.44780   1.00
Zn1      0.44780    0.44780    0.44780   1.00
O2       0.43850    0.39150    0.32680   1.00
O2       0.43850    0.32680    0.39150   1.00
O2       0.50320    0.39150    0.39150   1.00
O2       0.39150    0.43850    0.32680   1.00
O2       0.32680    0.43850    0.39150   1.00
O2       0.39150    0.50320    0.39150   1.00
O2       0.39150    0.32680    0.43850   1.00
O2       0.32680    0.39150    0.43850   1.00
O2       0.39150    0.39150    0.50320   1.00
O2       0.50320    0.43850    0.43850   1.00
O2       0.43850    0.50320    0.43850   1.00
O2       0.43850    0.43850    0.50320   1.00
C1       0.41500    0.41500    0.30980   1.00
C1       0.41500    0.30980    0.41500   1.00
C1       0.52020    0.41500    0.41500   1.00
C1       0.30980    0.41500    0.41500   1.00
C1       0.41500    0.52020    0.41500   1.00
C1       0.41500    0.41500    0.52020   1.00
O1       0.91500    0.91500    0.41500   1.00
Zn1      0.94780    0.88220    0.38220   1.00
Zn1      0.88220    0.94780    0.38220   1.00
Zn1      0.88220    0.88220    0.44780   1.00
Zn1      0.94780    0.94780    0.44780   1.00
O2       0.93850    0.89150    0.32680   1.00
O2       0.93850    0.82680    0.39150   1.00
O2       1.00320    0.89150    0.39150   1.00
O2       0.89150    0.93850    0.32680   1.00
O2       0.82680    0.93850    0.39150   1.00
O2       0.89150    1.00320    0.39150   1.00
O2       0.89150    0.82680    0.43850   1.00
O2       0.82680    0.89150    0.43850   1.00
O2       0.89150    0.89150    0.50320   1.00
O2       1.00320    0.93850    0.43850   1.00
O2       0.93850    1.00320    0.43850   1.00
O2       0.93850    0.93850    0.50320   1.00
C1       0.91500    0.91500    0.30980   1.00
C1       0.91500    0.80980    0.41500   1.00
C1       1.02020    0.91500    0.41500   1.00
C1       0.80980    0.91500    0.41500   1.00
C1       0.91500    1.02020    0.41500   1.00
C1       0.91500    0.91500    0.52020   1.00
O1       0.91500    0.41500    0.91500   1.00
Zn1      0.94780    0.38220    0.88220   1.00
Zn1      0.88220    0.44780    0.88220   1.00
Zn1      0.88220    0.38220    0.94780   1.00
Zn1      0.94780    0.44780    0.94780   1.00
O2       0.93850    0.39150    0.82680   1.00
O2       0.93850    0.32680    0.89150   1.00
O2       1.00320    0.39150    0.89150   1.00
O2       0.89150    0.43850    0.82680   1.00
O2       0.82680    0.43850    0.89150   1.00
O2       0.89150    0.50320    0.89150   1.00
O2       0.89150    0.32680    0.93850   1.00
O2       0.82680    0.39150    0.93850   1.00
O2       0.89150    0.39150    1.00320   1.00
O2       1.00320    0.43850    0.93850   1.00
O2       0.93850    0.50320    0.93850   1.00
O2       0.93850    0.43850    1.00320   1.00
C1       0.91500    0.41500    0.80980   1.00
C1       0.91500    0.30980    0.91500   1.00
C1       1.02020    0.41500    0.91500   1.00
C1       0.80980    0.41500    0.91500   1.00
C1       0.91500    0.52020    0.91500   1.00
C1       0.91500    0.41500    1.02020   1.00
O1       0.41500    0.91500    0.91500   1.00
Zn1      0.44780    0.88220    0.88220   1.00
Zn1      0.38220    0.94780    0.88220   1.00
Zn1      0.38220    0.88220    0.94780   1.00
Zn1      0.44780    0.94780    0.94780   1.00
O2       0.43850    0.89150    0.82680   1.00
O2       0.43850    0.82680    0.89150   1.00
O2       0.50320    0.89150    0.89150   1.00
O2       0.39150    0.93850    0.82680   1.00
O2       0.32680    0.93850    0.89150   1.00
O2       0.39150    1.00320    0.89150   1.00
O2       0.39150    0.82680    0.93850   1.00
O2       0.32680    0.89150    0.93850   1.00
O2       0.39150    0.89150    1.00320   1.00
O2       0.50320    0.93850    0.93850   1.00
O2       0.43850    1.00320    0.93850   1.00
O2       0.43850    0.93850    1.00320   1.00
C1       0.41500    0.91500    0.80980   1.00
C1       0.41500    0.80980    0.91500   1.00
C1       0.52020    0.91500    0.91500   1.00
C1       0.30980    0.91500    0.91500   1.00
C1       0.41500    1.02020    0.91500   1.00
C1       0.41500    0.91500    1.02020   1.00
C5       0.82715    0.64939    1.13218   1.00
H2       0.84240    0.67355    1.14745   1.00
H2       0.84850    0.63748    1.11090   1.00
C5       0.81544    0.61784    1.16194   1.00
C5       0.85022    0.59097    1.17123   1.00
H2       0.79105    0.59992    1.15015   1.00
O3       0.70199    0.69794    0.98000   1.00
C4       0.75008    0.75041    1.02100   1.00
C3c      0.77621    0.72724    1.04243   1.00
H1       0.79697    0.70898    1.02725   1.00
C3d      0.72364    0.77442    1.04135   1.00
C3       0.77567    0.72677    1.08354   1.00
O2       0.80513    0.70713    1.10248   1.00
C3       0.72252    0.77346    1.08227   1.00
H1       0.70081    0.79133    1.09657   1.00
C2       0.74845    0.74988    1.10439   1.00
C5       0.66264    0.71009    0.97879   1.00
H2       0.65121    0.71176    0.94838   1.00
H2       0.65896    0.73932    0.99266   1.00
C5       0.63860    0.68018    1.00129   1.00
H2       0.65071    0.67770    1.03137   1.00
H2       0.64219    0.65119    0.98698   1.00
C5       0.59527    0.69198    1.00262   1.00
H2       0.58306    0.69477    0.97268   1.00
H2       0.59151    0.72027    1.01811   1.00
C5       0.57149    0.66073    1.02445   1.00
C5       0.71064    0.83224    1.01105   1.00
C5       0.79319    0.66850    1.11070   1.00
H2       0.73587    0.82912    0.99088   1.00
H2       0.72016    0.84926    1.03712   1.00
H2       0.78695    0.65256    1.08300   1.00
H2       0.76614    0.66739    1.12895   1.00
H2       0.80629    0.63114    1.19030   1.00
H2       0.71235    0.88129    0.94247   1.00
H2       0.71201    0.90912    0.98763   1.00
C2       0.74733    0.74977    0.89605   1.00
C3       0.77320    0.77489    0.91597   1.00
O2       0.79041    0.80579    0.89674   1.00
C3       0.72412    0.72383    0.91826   1.00
H1       0.70477    0.70353    0.90385   1.00
C3a      0.77456    0.77430    0.95713   1.00
H1       0.79287    0.79525    0.97202   1.00
C3b      0.72464    0.72418    0.95922   1.00
C4       0.74992    0.74959    0.97900   1.00
O3       0.69537    0.79551    1.02167   1.00
C5       0.82941    0.79669    0.88720   1.00
H2       0.84690    0.79014    0.91391   1.00
C5       0.84648    0.83231    0.86674   1.00
H2       0.83084    0.77103    0.86726   1.00
H2       0.85470    0.85419    0.88932   1.00
H2       0.82271    0.84571    0.84907   1.00
C5       0.88180    0.82238    0.84082   1.00
H2       0.90391    0.80629    0.85824   1.00
C5       0.90063    0.85977    0.82453   1.00
H2       0.87298    0.80438    0.81507   1.00
C5       0.67836    0.85463    0.99017   1.00
H2       0.65615    0.86359    1.01215   1.00
H2       0.66359    0.83432    0.96952   1.00
C5       0.69424    0.89033    0.96800   1.00
C5       0.66016    0.91499    0.95225   1.00
H2       0.87045    0.60609    1.19286   1.00
C5       0.83514    0.55262    1.18912   1.00
H2       0.86689    0.58433    1.14323   1.00
C5       0.53044    0.67667    1.03337   1.00
H2       0.56893    0.63351    1.00551   1.00
H2       0.58682    0.65302    1.05293   1.00
C5       0.93976    0.84953    0.80497   1.00
H2       0.88031    0.87356    0.80211   1.00
H2       0.90594    0.88124    0.84937   1.00
H2       0.63882    0.89531    0.93602   1.00
H2       0.64452    0.92976    0.97761   1.00
C5       0.67602    0.94626    0.92417   1.00
H2       0.80450    0.55729    1.20116   1.00
H2       0.83437    0.52901    1.16571   1.00
H2       0.85540    0.54315    1.21374   1.00
H2       0.52640    0.70599    1.01820   1.00
H2       0.50757    0.65522    1.02229   1.00
H2       0.52698    0.68061    1.06621   1.00
H2       0.93687    0.82057    0.78889   1.00
H2       0.94794    0.87345    0.78336   1.00
H2       0.96343    0.84701    0.82819   1.00
H2       0.67558    0.93448    0.89307   1.00
H2       0.65699    0.97347    0.92598   1.00
H2       0.70723    0.95398    0.93266   1.00
C5       0.64939    1.13218    0.82715   1.00
H2       0.67355    1.14745    0.84240   1.00
H2       0.63748    1.11090    0.84850   1.00
C5       0.61784    1.16194    0.81544   1.00
C5       0.59097    1.17123    0.85022   1.00
H2       0.59992    1.15015    0.79105   1.00
O3       0.69794    0.98000    0.70199   1.00
C4       0.75041    1.02100    0.75008   1.00
C3c      0.72724    1.04243    0.77621   1.00
H1       0.70898    1.02725    0.79697   1.00
C3d      0.77442    1.04135    0.72364   1.00
C3       0.72677    1.08354    0.77567   1.00
O2       0.70713    1.10248    0.80513   1.00
C3       0.77346    1.08227    0.72252   1.00
H1       0.79133    1.09657    0.70081   1.00
C2       0.74988    1.10439    0.74845   1.00
C5       0.71009    0.97879    0.66264   1.00
H2       0.71176    0.94838    0.65121   1.00
H2       0.73932    0.99266    0.65896   1.00
C5       0.68018    1.00129    0.63860   1.00
H2       0.67770    1.03137    0.65071   1.00
H2       0.65119    0.98698    0.64219   1.00
C5       0.69198    1.00262    0.59527   1.00
H2       0.69477    0.97268    0.58306   1.00
H2       0.72027    1.01811    0.59151   1.00
C5       0.66073    1.02445    0.57149   1.00
C5       0.83224    1.01105    0.71064   1.00
C5       0.66850    1.11070    0.79319   1.00
H2       0.82912    0.99088    0.73587   1.00
H2       0.84926    1.03712    0.72016   1.00
H2       0.65256    1.08300    0.78695   1.00
H2       0.66739    1.12895    0.76614   1.00
H2       0.63114    1.19030    0.80629   1.00
H2       0.88129    0.94247    0.71235   1.00
H2       0.90912    0.98763    0.71201   1.00
C2       0.74977    0.89605    0.74733   1.00
C3       0.77489    0.91597    0.77320   1.00
O2       0.80579    0.89674    0.79041   1.00
C3       0.72383    0.91826    0.72412   1.00
H1       0.70353    0.90385    0.70477   1.00
C3a      0.77430    0.95713    0.77456   1.00
H1       0.79525    0.97202    0.79287   1.00
C3b      0.72418    0.95922    0.72464   1.00
C4       0.74959    0.97900    0.74992   1.00
O3       0.79551    1.02167    0.69537   1.00
C5       0.79669    0.88720    0.82941   1.00
H2       0.79014    0.91391    0.84690   1.00
C5       0.83231    0.86674    0.84648   1.00
H2       0.77103    0.86726    0.83084   1.00
H2       0.85419    0.88932    0.85470   1.00
H2       0.84571    0.84907    0.82271   1.00
C5       0.82238    0.84082    0.88180   1.00
H2       0.80629    0.85824    0.90391   1.00
C5       0.85977    0.82453    0.90063   1.00
H2       0.80438    0.81507    0.87298   1.00
C5       0.85463    0.99017    0.67836   1.00
H2       0.86359    1.01215    0.65615   1.00
H2       0.83432    0.96952    0.66359   1.00
C5       0.89033    0.96800    0.69424   1.00
C5       0.91499    0.95225    0.66016   1.00
H2       0.60609    1.19286    0.87045   1.00
C5       0.55262    1.18912    0.83514   1.00
H2       0.58433    1.14323    0.86689   1.00
C5       0.67667    1.03337    0.53044   1.00
H2       0.63351    1.00551    0.56893   1.00
H2       0.65302    1.05293    0.58682   1.00
C5       0.84953    0.80497    0.93976   1.00
H2       0.87356    0.80211    0.88031   1.00
H2       0.88124    0.84937    0.90594   1.00
H2       0.89531    0.93602    0.63882   1.00
H2       0.92976    0.97761    0.64452   1.00
C5       0.94626    0.92417    0.67602   1.00
H2       0.55729    1.20116    0.80450   1.00
H2       0.52901    1.16571    0.83437   1.00
H2       0.54315    1.21374    0.85540   1.00
H2       0.70599    1.01820    0.52640   1.00
H2       0.65522    1.02229    0.50757   1.00
H2       0.68061    1.06621    0.52698   1.00
H2       0.82057    0.78889    0.93687   1.00
H2       0.87345    0.78336    0.94794   1.00
H2       0.84701    0.82819    0.96343   1.00
H2       0.93448    0.89307    0.67558   1.00
H2       0.97347    0.92598    0.65699   1.00
H2       0.95398    0.93266    0.70723   1.00
C5       0.36782    0.82715    0.85061   1.00
H2       0.35255    0.84240    0.82645   1.00
H2       0.38910    0.84850    0.86252   1.00
C5       0.33806    0.81544    0.88216   1.00
C5       0.32877    0.85022    0.90903   1.00
H2       0.34985    0.79105    0.90008   1.00
O3       0.52000    0.70199    0.80206   1.00
C4       0.47900    0.75008    0.74959   1.00
C3c      0.45757    0.77621    0.77276   1.00
H1       0.47275    0.79697    0.79102   1.00
C3d      0.45865    0.72364    0.72558   1.00
C3       0.41646    0.77567    0.77323   1.00
O2       0.39752    0.80513    0.79287   1.00
C3       0.41773    0.72252    0.72654   1.00
H1       0.40343    0.70081    0.70867   1.00
C2       0.39561    0.74845    0.75012   1.00
C5       0.52121    0.66264    0.78991   1.00
H2       0.55162    0.65121    0.78824   1.00
H2       0.50734    0.65896    0.76068   1.00
C5       0.49871    0.63860    0.81982   1.00
H2       0.46863    0.65071    0.82230   1.00
H2       0.51302    0.64219    0.84881   1.00
C5       0.49738    0.59527    0.80802   1.00
H2       0.52732    0.58306    0.80523   1.00
H2       0.48189    0.59151    0.77973   1.00
C5       0.47555    0.57149    0.83927   1.00
C5       0.48895    0.71064    0.66776   1.00
C5       0.38930    0.79319    0.83150   1.00
H2       0.50912    0.73587    0.67088   1.00
H2       0.46288    0.72016    0.65074   1.00
H2       0.41700    0.78695    0.84744   1.00
H2       0.37105    0.76614    0.83261   1.00
H2       0.30970    0.80629    0.86886   1.00
H2       0.55753    0.71235    0.61871   1.00
H2       0.51237    0.71201    0.59088   1.00
C2       0.60395    0.74733    0.75023   1.00
C3       0.58403    0.77320    0.72511   1.00
O2       0.60326    0.79041    0.69421   1.00
C3       0.58174    0.72412    0.77617   1.00
H1       0.59615    0.70477    0.79647   1.00
C3a      0.54287    0.77456    0.72570   1.00
H1       0.52798    0.79287    0.70475   1.00
C3b      0.54078    0.72464    0.77582   1.00
C4       0.52100    0.74992    0.75041   1.00
O3       0.47833    0.69537    0.70449   1.00
C5       0.61280    0.82941    0.70331   1.00
H2       0.58609    0.84690    0.70986   1.00
C5       0.63326    0.84648    0.66769   1.00
H2       0.63274    0.83084    0.72897   1.00
H2       0.61068    0.85470    0.64581   1.00
H2       0.65093    0.82271    0.65429   1.00
C5       0.65918    0.88180    0.67762   1.00
H2       0.64176    0.90391    0.69371   1.00
C5       0.67547    0.90063    0.64023   1.00
H2       0.68493    0.87298    0.69562   1.00
C5       0.50983    0.67836    0.64537   1.00
H2       0.48785    0.65615    0.63641   1.00
H2       0.53048    0.66359    0.66568   1.00
C5       0.53200    0.69424    0.60967   1.00
C5       0.54775    0.66016    0.58501   1.00
H2       0.30714    0.87045    0.89391   1.00
C5       0.31088    0.83514    0.94738   1.00
H2       0.35677    0.86689    0.91567   1.00
C5       0.46663    0.53044    0.82333   1.00
H2       0.49449    0.56893    0.86649   1.00
H2       0.44707    0.58682    0.84698   1.00
C5       0.69503    0.93976    0.65047   1.00
H2       0.69789    0.88031    0.62644   1.00
H2       0.65063    0.90594    0.61876   1.00
H2       0.56398    0.63882    0.60469   1.00
H2       0.52239    0.64452    0.57024   1.00
C5       0.57583    0.67602    0.55374   1.00
H2       0.29884    0.80450    0.94271   1.00
H2       0.33429    0.83437    0.97099   1.00
H2       0.28626    0.85540    0.95685   1.00
H2       0.48180    0.52640    0.79401   1.00
H2       0.47771    0.50757    0.84478   1.00
H2       0.43379    0.52698    0.81939   1.00
H2       0.71111    0.93687    0.67943   1.00
H2       0.71664    0.94794    0.62655   1.00
H2       0.67181    0.96343    0.65299   1.00
H2       0.60693    0.67558    0.56552   1.00
H2       0.57402    0.65699    0.52653   1.00
H2       0.56734    0.70723    0.54602   1.00
C5       1.13218    0.82715    0.64939   1.00
H2       1.14745    0.84240    0.67355   1.00
H2       1.11090    0.84850    0.63748   1.00
C5       1.16194    0.81544    0.61784   1.00
C5       1.17123    0.85022    0.59097   1.00
H2       1.15015    0.79105    0.59992   1.00
O3       0.98000    0.70199    0.69794   1.00
C4       1.02100    0.75008    0.75041   1.00
C3c      1.04243    0.77621    0.72724   1.00
H1       1.02725    0.79697    0.70898   1.00
C3d      1.04135    0.72364    0.77442   1.00
C3       1.08354    0.77567    0.72677   1.00
O2       1.10248    0.80513    0.70713   1.00
C3       1.08227    0.72252    0.77346   1.00
H1       1.09657    0.70081    0.79133   1.00
C2       1.10439    0.74845    0.74988   1.00
C5       0.97879    0.66264    0.71009   1.00
H2       0.94838    0.65121    0.71176   1.00
H2       0.99266    0.65896    0.73932   1.00
C5       1.00129    0.63860    0.68018   1.00
H2       1.03137    0.65071    0.67770   1.00
H2       0.98698    0.64219    0.65119   1.00
C5       1.00262    0.59527    0.69198   1.00
H2       0.97268    0.58306    0.69477   1.00
H2       1.01811    0.59151    0.72027   1.00
C5       1.02445    0.57149    0.66073   1.00
C5       1.01105    0.71064    0.83224   1.00
C5       1.11070    0.79319    0.66850   1.00
H2       0.99088    0.73587    0.82912   1.00
H2       1.03712    0.72016    0.84926   1.00
H2       1.08300    0.78695    0.65256   1.00
H2       1.12895    0.76614    0.66739   1.00
H2       1.19030    0.80629    0.63114   1.00
H2       0.94247    0.71235    0.88129   1.00
H2       0.98763    0.71201    0.90912   1.00
C2       0.89605    0.74733    0.74977   1.00
C3       0.91597    0.77320    0.77489   1.00
O2       0.89674    0.79041    0.80579   1.00
C3       0.91826    0.72412    0.72383   1.00
H1       0.90385    0.70477    0.70353   1.00
C3a      0.95713    0.77456    0.77430   1.00
H1       0.97202    0.79287    0.79525   1.00
C3b      0.95922    0.72464    0.72418   1.00
C4       0.97900    0.74992    0.74959   1.00
O3       1.02167    0.69537    0.79551   1.00
C5       0.88720    0.82941    0.79669   1.00
H2       0.91391    0.84690    0.79014   1.00
C5       0.86674    0.84648    0.83231   1.00
H2       0.86726    0.83084    0.77103   1.00
H2       0.88932    0.85470    0.85419   1.00
H2       0.84907    0.82271    0.84571   1.00
C5       0.84082    0.88180    0.82238   1.00
H2       0.85824    0.90391    0.80629   1.00
C5       0.82453    0.90063    0.85977   1.00
H2       0.81507    0.87298    0.80438   1.00
C5       0.99017    0.67836    0.85463   1.00
H2       1.01215    0.65615    0.86359   1.00
H2       0.96952    0.66359    0.83432   1.00
C5       0.96800    0.69424    0.89033   1.00
C5       0.95225    0.66016    0.91499   1.00
H2       1.19286    0.87045    0.60609   1.00
C5       1.18912    0.83514    0.55262   1.00
H2       1.14323    0.86689    0.58433   1.00
C5       1.03337    0.53044    0.67667   1.00
H2       1.00551    0.56893    0.63351   1.00
H2       1.05293    0.58682    0.65302   1.00
C5       0.80497    0.93976    0.84953   1.00
H2       0.80211    0.88031    0.87356   1.00
H2       0.84937    0.90594    0.88124   1.00
H2       0.93602    0.63882    0.89531   1.00
H2       0.97761    0.64452    0.92976   1.00
C5       0.92417    0.67602    0.94626   1.00
H2       1.20116    0.80450    0.55729   1.00
H2       1.16571    0.83437    0.52901   1.00
H2       1.21374    0.85540    0.54315   1.00
H2       1.01820    0.52640    0.70599   1.00
H2       1.02229    0.50757    0.65522   1.00
H2       1.06621    0.52698    0.68061   1.00
H2       0.78889    0.93687    0.82057   1.00
H2       0.78336    0.94794    0.87345   1.00
H2       0.82819    0.96343    0.84701   1.00
H2       0.89307    0.67558    0.93448   1.00
H2       0.92598    0.65699    0.97347   1.00
H2       0.93266    0.70723    0.95398   1.00
C5       0.85061    0.36782    0.82715   1.00
H2       0.82645    0.35255    0.84240   1.00
H2       0.86252    0.38910    0.84850   1.00
C5       0.88216    0.33806    0.81544   1.00
C5       0.90903    0.32877    0.85022   1.00
H2       0.90008    0.34985    0.79105   1.00
O3       0.80206    0.52000    0.70199   1.00
C4       0.74959    0.47900    0.75008   1.00
C3c      0.77276    0.45757    0.77621   1.00
H1       0.79102    0.47275    0.79697   1.00
C3d      0.72558    0.45865    0.72364   1.00
C3       0.77323    0.41646    0.77567   1.00
O2       0.79287    0.39752    0.80513   1.00
C3       0.72654    0.41773    0.72252   1.00
H1       0.70867    0.40343    0.70081   1.00
C2       0.75012    0.39561    0.74845   1.00
C5       0.78991    0.52121    0.66264   1.00
H2       0.78824    0.55162    0.65121   1.00
H2       0.76068    0.50734    0.65896   1.00
C5       0.81982    0.49871    0.63860   1.00
H2       0.82230    0.46863    0.65071   1.00
H2       0.84881    0.51302    0.64219   1.00
C5       0.80802    0.49738    0.59527   1.00
H2       0.80523    0.52732    0.58306   1.00
H2       0.77973    0.48189    0.59151   1.00
C5       0.83927    0.47555    0.57149   1.00
C5       0.66776    0.48895    0.71064   1.00
C5       0.83150    0.38930    0.79319   1.00
H2       0.67088    0.50912    0.73587   1.00
H2       0.65074    0.46288    0.72016   1.00
H2       0.84744    0.41700    0.78695   1.00
H2       0.83261    0.37105    0.76614   1.00
H2       0.86886    0.30970    0.80629   1.00
H2       0.61871    0.55753    0.71235   1.00
H2       0.59088    0.51237    0.71201   1.00
C2       0.75023    0.60395    0.74733   1.00
C3       0.72511    0.58403    0.77320   1.00
O2       0.69421    0.60326    0.79041   1.00
C3       0.77617    0.58174    0.72412   1.00
H1       0.79647    0.59615    0.70477   1.00
C3a      0.72570    0.54287    0.77456   1.00
H1       0.70475    0.52798    0.79287   1.00
C3b      0.77582    0.54078    0.72464   1.00
C4       0.75041    0.52100    0.74992   1.00
O3       0.70449    0.47833    0.69537   1.00
C5       0.70331    0.61280    0.82941   1.00
H2       0.70986    0.58609    0.84690   1.00
C5       0.66769    0.63326    0.84648   1.00
H2       0.72897    0.63274    0.83084   1.00
H2       0.64581    0.61068    0.85470   1.00
H2       0.65429    0.65093    0.82271   1.00
C5       0.67762    0.65918    0.88180   1.00
H2       0.69371    0.64176    0.90391   1.00
C5       0.64023    0.67547    0.90063   1.00
H2       0.69562    0.68493    0.87298   1.00
C5       0.64537    0.50983    0.67836   1.00
H2       0.63641    0.48785    0.65615   1.00
H2       0.66568    0.53048    0.66359   1.00
C5       0.60967    0.53200    0.69424   1.00
C5       0.58501    0.54775    0.66016   1.00
H2       0.89391    0.30714    0.87045   1.00
C5       0.94738    0.31088    0.83514   1.00
H2       0.91567    0.35677    0.86689   1.00
C5       0.82333    0.46663    0.53044   1.00
H2       0.86649    0.49449    0.56893   1.00
H2       0.84698    0.44707    0.58682   1.00
C5       0.65047    0.69503    0.93976   1.00
H2       0.62644    0.69789    0.88031   1.00
H2       0.61876    0.65063    0.90594   1.00
H2       0.60469    0.56398    0.63882   1.00
H2       0.57024    0.52239    0.64452   1.00
C5       0.55374    0.57583    0.67602   1.00
H2       0.94271    0.29884    0.80450   1.00
H2       0.97099    0.33429    0.83437   1.00
H2       0.95685    0.28626    0.85540   1.00
H2       0.79401    0.48180    0.52640   1.00
H2       0.84478    0.47771    0.50757   1.00
H2       0.81939    0.43379    0.52698   1.00
H2       0.67943    0.71111    0.93687   1.00
H2       0.62655    0.71664    0.94794   1.00
H2       0.65299    0.67181    0.96343   1.00
H2       0.56552    0.60693    0.67558   1.00
H2       0.52653    0.57402    0.65699   1.00
H2       0.54602    0.56734    0.70723   1.00
C5       0.82715    0.85061    0.36782   1.00
H2       0.84240    0.82645    0.35255   1.00
H2       0.84850    0.86252    0.38910   1.00
C5       0.81544    0.88216    0.33806   1.00
C5       0.85022    0.90903    0.32877   1.00
H2       0.79105    0.90008    0.34985   1.00
O3       0.70199    0.80206    0.52000   1.00
C4       0.75008    0.74959    0.47900   1.00
C3c      0.77621    0.77276    0.45757   1.00
H1       0.79697    0.79102    0.47275   1.00
C3d      0.72364    0.72558    0.45865   1.00
C3       0.77567    0.77323    0.41646   1.00
O2       0.80513    0.79287    0.39752   1.00
C3       0.72252    0.72654    0.41773   1.00
H1       0.70081    0.70867    0.40343   1.00
C2       0.74845    0.75012    0.39561   1.00
C5       0.66264    0.78991    0.52121   1.00
H2       0.65121    0.78824    0.55162   1.00
H2       0.65896    0.76068    0.50734   1.00
C5       0.63860    0.81982    0.49871   1.00
H2       0.65071    0.82230    0.46863   1.00
H2       0.64219    0.84881    0.51302   1.00
C5       0.59527    0.80802    0.49738   1.00
H2       0.58306    0.80523    0.52732   1.00
H2       0.59151    0.77973    0.48189   1.00
C5       0.57149    0.83927    0.47555   1.00
C5       0.71064    0.66776    0.48895   1.00
C5       0.79319    0.83150    0.38930   1.00
H2       0.73587    0.67088    0.50912   1.00
H2       0.72016    0.65074    0.46288   1.00
H2       0.78695    0.84744    0.41700   1.00
H2       0.76614    0.83261    0.37105   1.00
H2       0.80629    0.86886    0.30970   1.00
H2       0.71235    0.61871    0.55753   1.00
H2       0.71201    0.59088    0.51237   1.00
C2       0.74733    0.75023    0.60395   1.00
C3       0.77320    0.72511    0.58403   1.00
O2       0.79041    0.69421    0.60326   1.00
C3       0.72412    0.77617    0.58174   1.00
H1       0.70477    0.79647    0.59615   1.00
C3a      0.77456    0.72570    0.54287   1.00
H1       0.79287    0.70475    0.52798   1.00
C3b      0.72464    0.77582    0.54078   1.00
C4       0.74992    0.75041    0.52100   1.00
O3       0.69537    0.70449    0.47833   1.00
C5       0.82941    0.70331    0.61280   1.00
H2       0.84690    0.70986    0.58609   1.00
C5       0.84648    0.66769    0.63326   1.00
H2       0.83084    0.72897    0.63274   1.00
H2       0.85470    0.64581    0.61068   1.00
H2       0.82271    0.65429    0.65093   1.00
C5       0.88180    0.67762    0.65918   1.00
H2       0.90391    0.69371    0.64176   1.00
C5       0.90063    0.64023    0.67547   1.00
H2       0.87298    0.69562    0.68493   1.00
C5       0.67836    0.64537    0.50983   1.00
H2       0.65615    0.63641    0.48785   1.00
H2       0.66359    0.66568    0.53048   1.00
C5       0.69424    0.60967    0.53200   1.00
C5       0.66016    0.58501    0.54775   1.00
H2       0.87045    0.89391    0.30714   1.00
C5       0.83514    0.94738    0.31088   1.00
H2       0.86689    0.91567    0.35677   1.00
C5       0.53044    0.82333    0.46663   1.00
H2       0.56893    0.86649    0.49449   1.00
H2       0.58682    0.84698    0.44707   1.00
C5       0.93976    0.65047    0.69503   1.00
H2       0.88031    0.62644    0.69789   1.00
H2       0.90594    0.61876    0.65063   1.00
H2       0.63882    0.60469    0.56398   1.00
H2       0.64452    0.57024    0.52239   1.00
C5       0.67602    0.55374    0.57583   1.00
H2       0.80450    0.94271    0.29884   1.00
H2       0.83437    0.97099    0.33429   1.00
H2       0.85540    0.95685    0.28626   1.00
H2       0.52640    0.79401    0.48180   1.00
H2       0.50757    0.84478    0.47771   1.00
H2       0.52698    0.81939    0.43379   1.00
H2       0.93687    0.67943    0.71111   1.00
H2       0.94794    0.62655    0.71664   1.00
H2       0.96343    0.65299    0.67181   1.00
H2       0.67558    0.56552    0.60693   1.00
H2       0.65699    0.52653    0.57402   1.00
H2       0.70723    0.54602    0.56734   1.00
C5       0.32715    0.14939    1.13218   1.00
H2       0.34240    0.17355    1.14745   1.00
H2       0.34850    0.13748    1.11090   1.00
C5       0.31544    0.11784    1.16194   1.00
C5       0.35022    0.09097    1.17123   1.00
H2       0.29105    0.09992    1.15015   1.00
O3       0.20199    0.19794    0.98000   1.00
C4       0.25008    0.25041    1.02100   1.00
C3c      0.27621    0.22724    1.04243   1.00
H1       0.29697    0.20898    1.02725   1.00
C3d      0.22364    0.27442    1.04135   1.00
C3       0.27567    0.22677    1.08354   1.00
O2       0.30513    0.20713    1.10248   1.00
C3       0.22252    0.27346    1.08227   1.00
H1       0.20081    0.29133    1.09657   1.00
C2       0.24845    0.24988    1.10439   1.00
C5       0.16264    0.21009    0.97879   1.00
H2       0.15121    0.21176    0.94838   1.00
H2       0.15896    0.23932    0.99266   1.00
C5       0.13860    0.18018    1.00129   1.00
H2       0.15071    0.17770    1.03137   1.00
H2       0.14219    0.15119    0.98698   1.00
C5       0.09527    0.19198    1.00262   1.00
H2       0.08306    0.19477    0.97268   1.00
H2       0.09151    0.22027    1.01811   1.00
C5       0.07149    0.16073    1.02445   1.00
C5       0.21064    0.33224    1.01105   1.00
C5       0.29319    0.16850    1.11070   1.00
H2       0.23587    0.32912    0.99088   1.00
H2       0.22016    0.34926    1.03712   1.00
H2       0.28695    0.15256    1.08300   1.00
H2       0.26614    0.16739    1.12895   1.00
H2       0.30629    0.13114    1.19030   1.00
H2       0.21235    0.38129    0.94247   1.00
H2       0.21201    0.40912    0.98763   1.00
C2       0.24733    0.24977    0.89605   1.00
C3       0.27320    0.27489    0.91597   1.00
O2       0.29041    0.30579    0.89674   1.00
C3       0.22412    0.22383    0.91826   1.00
H1       0.20477    0.20353    0.90385   1.00
C3a      0.27456    0.27430    0.95713   1.00
H1       0.29287    0.29525    0.97202   1.00
C3b      0.22464    0.22418    0.95922   1.00
C4       0.24992    0.24959    0.97900   1.00
O3       0.19537    0.29551    1.02167   1.00
C5       0.32941    0.29669    0.88720   1.00
H2       0.34690    0.29014    0.91391   1.00
C5       0.34648    0.33231    0.86674   1.00
H2       0.33084    0.27103    0.86726   1.00
H2       0.35470    0.35419    0.88932   1.00
H2       0.32271    0.34571    0.84907   1.00
C5       0.38180    0.32238    0.84082   1.00
H2       0.40391    0.30629    0.85824   1.00
C5       0.40063    0.35977    0.82453   1.00
H2       0.37298    0.30438    0.81507   1.00
C5       0.17836    0.35463    0.99017   1.00
H2       0.15615    0.36359    1.01215   1.00
H2       0.16359    0.33432    0.96952   1.00
C5       0.19424    0.39033    0.96800   1.00
C5       0.16016    0.41499    0.95225   1.00
H2       0.37045    0.10609    1.19286   1.00
C5       0.33514    0.05262    1.18912   1.00
H2       0.36689    0.08433    1.14323   1.00
C5       0.03044    0.17667    1.03337   1.00
H2       0.06893    0.13351    1.00551   1.00
H2       0.08682    0.15302    1.05293   1.00
C5       0.43976    0.34953    0.80497   1.00
H2       0.38031    0.37356    0.80211   1.00
H2       0.40594    0.38124    0.84937   1.00
H2       0.13882    0.39531    0.93602   1.00
H2       0.14452    0.42976    0.97761   1.00
C5       0.17602    0.44626    0.92417   1.00
H2       0.30450    0.05729    1.20116   1.00
H2       0.33437    0.02901    1.16571   1.00
H2       0.35540    0.04315    1.21374   1.00
H2       0.02640    0.20599    1.01820   1.00
H2       0.00757    0.15522    1.02229   1.00
H2       0.02698    0.18061    1.06621   1.00
H2       0.43687    0.32057    0.78889   1.00
H2       0.44794    0.37345    0.78336   1.00
H2       0.46343    0.34701    0.82819   1.00
H2       0.17558    0.43448    0.89307   1.00
H2       0.15699    0.47347    0.92598   1.00
H2       0.20723    0.45398    0.93266   1.00
C5       0.14939    0.63218    0.82715   1.00
H2       0.17355    0.64745    0.84240   1.00
H2       0.13748    0.61090    0.84850   1.00
C5       0.11784    0.66194    0.81544   1.00
C5       0.09097    0.67123    0.85022   1.00
H2       0.09992    0.65015    0.79105   1.00
O3       0.19794    0.48000    0.70199   1.00
C4       0.25041    0.52100    0.75008   1.00
C3c      0.22724    0.54243    0.77621   1.00
H1       0.20898    0.52725    0.79697   1.00
C3d      0.27442    0.54135    0.72364   1.00
C3       0.22677    0.58354    0.77567   1.00
O2       0.20713    0.60248    0.80513   1.00
C3       0.27346    0.58227    0.72252   1.00
H1       0.29133    0.59657    0.70081   1.00
C2       0.24988    0.60439    0.74845   1.00
C5       0.21009    0.47879    0.66264   1.00
H2       0.21176    0.44838    0.65121   1.00
H2       0.23932    0.49266    0.65896   1.00
C5       0.18018    0.50129    0.63860   1.00
H2       0.17770    0.53137    0.65071   1.00
H2       0.15119    0.48698    0.64219   1.00
C5       0.19198    0.50262    0.59527   1.00
H2       0.19477    0.47268    0.58306   1.00
H2       0.22027    0.51811    0.59151   1.00
C5       0.16073    0.52445    0.57149   1.00
C5       0.33224    0.51105    0.71064   1.00
C5       0.16850    0.61070    0.79319   1.00
H2       0.32912    0.49088    0.73587   1.00
H2       0.34926    0.53712    0.72016   1.00
H2       0.15256    0.58300    0.78695   1.00
H2       0.16739    0.62895    0.76614   1.00
H2       0.13114    0.69030    0.80629   1.00
H2       0.38129    0.44247    0.71235   1.00
H2       0.40912    0.48763    0.71201   1.00
C2       0.24977    0.39605    0.74733   1.00
C3       0.27489    0.41597    0.77320   1.00
O2       0.30579    0.39674    0.79041   1.00
C3       0.22383    0.41826    0.72412   1.00
H1       0.20353    0.40385    0.70477   1.00
C3a      0.27430    0.45713    0.77456   1.00
H1       0.29525    0.47202    0.79287   1.00
C3b      0.22418    0.45922    0.72464   1.00
C4       0.24959    0.47900    0.74992   1.00
O3       0.29551    0.52167    0.69537   1.00
C5       0.29669    0.38720    0.82941   1.00
H2       0.29014    0.41391    0.84690   1.00
C5       0.33231    0.36674    0.84648   1.00
H2       0.27103    0.36726    0.83084   1.00
H2       0.35419    0.38932    0.85470   1.00
H2       0.34571    0.34907    0.82271   1.00
C5       0.32238    0.34082    0.88180   1.00
H2       0.30629    0.35824    0.90391   1.00
C5       0.35977    0.32453    0.90063   1.00
H2       0.30438    0.31507    0.87298   1.00
C5       0.35463    0.49017    0.67836   1.00
H2       0.36359    0.51215    0.65615   1.00
H2       0.33432    0.46952    0.66359   1.00
C5       0.39033    0.46800    0.69424   1.00
C5       0.41499    0.45225    0.66016   1.00
H2       0.10609    0.69286    0.87045   1.00
C5       0.05262    0.68912    0.83514   1.00
H2       0.08433    0.64323    0.86689   1.00
C5       0.17667    0.53337    0.53044   1.00
H2       0.13351    0.50551    0.56893   1.00
H2       0.15302    0.55293    0.58682   1.00
C5       0.34953    0.30497    0.93976   1.00
H2       0.37356    0.30211    0.88031   1.00
H2       0.38124    0.34937    0.90594   1.00
H2       0.39531    0.43602    0.63882   1.00
H2       0.42976    0.47761    0.64452   1.00
C5       0.44626    0.42417    0.67602   1.00
H2       0.05729    0.70116    0.80450   1.00
H2       0.02901    0.66571    0.83437   1.00
H2       0.04315    0.71374    0.85540   1.00
H2       0.20599    0.51820    0.52640   1.00
H2       0.15522    0.52229    0.50757   1.00
H2       0.18061    0.56621    0.52698   1.00
H2       0.32057    0.28889    0.93687   1.00
H2       0.37345    0.28336    0.94794   1.00
H2       0.34701    0.32819    0.96343   1.00
H2       0.43448    0.39307    0.67558   1.00
H2       0.47347    0.42598    0.65699   1.00
H2       0.45398    0.43266    0.70723   1.00
C5       -0.13218   0.32715    0.85061   1.00
H2       -0.14745   0.34240    0.82645   1.00
H2       -0.11090   0.34850    0.86252   1.00
C5       -0.16194   0.31544    0.88216   1.00
C5       -0.17123   0.35022    0.90903   1.00
H2       -0.15015   0.29105    0.90008   1.00
O3       0.02000    0.20199    0.80206   1.00
C4       -0.02100   0.25008    0.74959   1.00
C3c      -0.04243   0.27621    0.77276   1.00
H1       -0.02725   0.29697    0.79102   1.00
C3d      -0.04135   0.22364    0.72558   1.00
C3       -0.08354   0.27567    0.77323   1.00
O2       -0.10248   0.30513    0.79287   1.00
C3       -0.08227   0.22252    0.72654   1.00
H1       -0.09657   0.20081    0.70867   1.00
C2       -0.10439   0.24845    0.75012   1.00
C5       0.02121    0.16264    0.78991   1.00
H2       0.05162    0.15121    0.78824   1.00
H2       0.00734    0.15896    0.76068   1.00
C5       -0.00129   0.13860    0.81982   1.00
H2       -0.03137   0.15071    0.82230   1.00
H2       0.01302    0.14219    0.84881   1.00
C5       -0.00262   0.09527    0.80802   1.00
H2       0.02732    0.08306    0.80523   1.00
H2       -0.01811   0.09151    0.77973   1.00
C5       -0.02445   0.07149    0.83927   1.00
C5       -0.01105   0.21064    0.66776   1.00
C5       -0.11070   0.29319    0.83150   1.00
H2       0.00912    0.23587    0.67088   1.00
H2       -0.03712   0.22016    0.65074   1.00
H2       -0.08300   0.28695    0.84744   1.00
H2       -0.12895   0.26614    0.83261   1.00
H2       -0.19030   0.30629    0.86886   1.00
H2       0.05753    0.21235    0.61871   1.00
H2       0.01237    0.21201    0.59088   1.00
C2       0.10395    0.24733    0.75023   1.00
C3       0.08403    0.27320    0.72511   1.00
O2       0.10326    0.29041    0.69421   1.00
C3       0.08174    0.22412    0.77617   1.00
H1       0.09615    0.20477    0.79647   1.00
C3a      0.04287    0.27456    0.72570   1.00
H1       0.02798    0.29287    0.70475   1.00
C3b      0.04078    0.22464    0.77582   1.00
C4       0.02100    0.24992    0.75041   1.00
O3       -0.02167   0.19537    0.70449   1.00
C5       0.11280    0.32941    0.70331   1.00
H2       0.08609    0.34690    0.70986   1.00
C5       0.13326    0.34648    0.66769   1.00
H2       0.13274    0.33084    0.72897   1.00
H2       0.11068    0.35470    0.64581   1.00
H2       0.15093    0.32271    0.65429   1.00
C5       0.15918    0.38180    0.67762   1.00
H2       0.14176    0.40391    0.69371   1.00
C5       0.17547    0.40063    0.64023   1.00
H2       0.18493    0.37298    0.69562   1.00
C5       0.00983    0.17836    0.64537   1.00
H2       -0.01215   0.15615    0.63641   1.00
H2       0.03048    0.16359    0.66568   1.00
C5       0.03200    0.19424    0.60967   1.00
C5       0.04775    0.16016    0.58501   1.00
H2       -0.19286   0.37045    0.89391   1.00
C5       -0.18912   0.33514    0.94738   1.00
H2       -0.14323   0.36689    0.91567   1.00
C5       -0.03337   0.03044    0.82333   1.00
H2       -0.00551   0.06893    0.86649   1.00
H2       -0.05293   0.08682    0.84698   1.00
C5       0.19503    0.43976    0.65047   1.00
H2       0.19789    0.38031    0.62644   1.00
H2       0.15063    0.40594    0.61876   1.00
H2       0.06398    0.13882    0.60469   1.00
H2       0.02239    0.14452    0.57024   1.00
C5       0.07583    0.17602    0.55374   1.00
H2       -0.20116   0.30450    0.94271   1.00
H2       -0.16571   0.33437    0.97099   1.00
H2       -0.21374   0.35540    0.95685   1.00
H2       -0.01820   0.02640    0.79401   1.00
H2       -0.02229   0.00757    0.84478   1.00
H2       -0.06621   0.02698    0.81939   1.00
H2       0.21111    0.43687    0.67943   1.00
H2       0.21664    0.44794    0.62655   1.00
H2       0.17181    0.46343    0.65299   1.00
H2       0.10693    0.17558    0.56552   1.00
H2       0.07402    0.15699    0.52653   1.00
H2       0.06734    0.20723    0.54602   1.00
C5       0.63218    0.32715    0.64939   1.00
H2       0.64745    0.34240    0.67355   1.00
H2       0.61090    0.34850    0.63748   1.00
C5       0.66194    0.31544    0.61784   1.00
C5       0.67123    0.35022    0.59097   1.00
H2       0.65015    0.29105    0.59992   1.00
O3       0.48000    0.20199    0.69794   1.00
C4       0.52100    0.25008    0.75041   1.00
C3c      0.54243    0.27621    0.72724   1.00
H1       0.52725    0.29697    0.70898   1.00
C3d      0.54135    0.22364    0.77442   1.00
C3       0.58354    0.27567    0.72677   1.00
O2       0.60248    0.30513    0.70713   1.00
C3       0.58227    0.22252    0.77346   1.00
H1       0.59657    0.20081    0.79133   1.00
C2       0.60439    0.24845    0.74988   1.00
C5       0.47879    0.16264    0.71009   1.00
H2       0.44838    0.15121    0.71176   1.00
H2       0.49266    0.15896    0.73932   1.00
C5       0.50129    0.13860    0.68018   1.00
H2       0.53137    0.15071    0.67770   1.00
H2       0.48698    0.14219    0.65119   1.00
C5       0.50262    0.09527    0.69198   1.00
H2       0.47268    0.08306    0.69477   1.00
H2       0.51811    0.09151    0.72027   1.00
C5       0.52445    0.07149    0.66073   1.00
C5       0.51105    0.21064    0.83224   1.00
C5       0.61070    0.29319    0.66850   1.00
H2       0.49088    0.23587    0.82912   1.00
H2       0.53712    0.22016    0.84926   1.00
H2       0.58300    0.28695    0.65256   1.00
H2       0.62895    0.26614    0.66739   1.00
H2       0.69030    0.30629    0.63114   1.00
H2       0.44247    0.21235    0.88129   1.00
H2       0.48763    0.21201    0.90912   1.00
C2       0.39605    0.24733    0.74977   1.00
C3       0.41597    0.27320    0.77489   1.00
O2       0.39674    0.29041    0.80579   1.00
C3       0.41826    0.22412    0.72383   1.00
H1       0.40385    0.20477    0.70353   1.00
C3a      0.45713    0.27456    0.77430   1.00
H1       0.47202    0.29287    0.79525   1.00
C3b      0.45922    0.22464    0.72418   1.00
C4       0.47900    0.24992    0.74959   1.00
O3       0.52167    0.19537    0.79551   1.00
C5       0.38720    0.32941    0.79669   1.00
H2       0.41391    0.34690    0.79014   1.00
C5       0.36674    0.34648    0.83231   1.00
H2       0.36726    0.33084    0.77103   1.00
H2       0.38932    0.35470    0.85419   1.00
H2       0.34907    0.32271    0.84571   1.00
C5       0.34082    0.38180    0.82238   1.00
H2       0.35824    0.40391    0.80629   1.00
C5       0.32453    0.40063    0.85977   1.00
H2       0.31507    0.37298    0.80438   1.00
C5       0.49017    0.17836    0.85463   1.00
H2       0.51215    0.15615    0.86359   1.00
H2       0.46952    0.16359    0.83432   1.00
C5       0.46800    0.19424    0.89033   1.00
C5       0.45225    0.16016    0.91499   1.00
H2       0.69286    0.37045    0.60609   1.00
C5       0.68912    0.33514    0.55262   1.00
H2       0.64323    0.36689    0.58433   1.00
C5       0.53337    0.03044    0.67667   1.00
H2       0.50551    0.06893    0.63351   1.00
H2       0.55293    0.08682    0.65302   1.00
C5       0.30497    0.43976    0.84953   1.00
H2       0.30211    0.38031    0.87356   1.00
H2       0.34937    0.40594    0.88124   1.00
H2       0.43602    0.13882    0.89531   1.00
H2       0.47761    0.14452    0.92976   1.00
C5       0.42417    0.17602    0.94626   1.00
H2       0.70116    0.30450    0.55729   1.00
H2       0.66571    0.33437    0.52901   1.00
H2       0.71374    0.35540    0.54315   1.00
H2       0.51820    0.02640    0.70599   1.00
H2       0.52229    0.00757    0.65522   1.00
H2       0.56621    0.02698    0.68061   1.00
H2       0.28889    0.43687    0.82057   1.00
H2       0.28336    0.44794    0.87345   1.00
H2       0.32819    0.46343    0.84701   1.00
H2       0.39307    0.17558    0.93448   1.00
H2       0.42598    0.15699    0.97347   1.00
H2       0.43266    0.20723    0.95398   1.00
C5       0.35061    -0.13218   0.82715   1.00
H2       0.32645    -0.14745   0.84240   1.00
H2       0.36252    -0.11090   0.84850   1.00
C5       0.38216    -0.16194   0.81544   1.00
C5       0.40903    -0.17123   0.85022   1.00
H2       0.40008    -0.15015   0.79105   1.00
O3       0.30206    0.02000    0.70199   1.00
C4       0.24959    -0.02100   0.75008   1.00
C3c      0.27276    -0.04243   0.77621   1.00
H1       0.29102    -0.02725   0.79697   1.00
C3d      0.22558    -0.04135   0.72364   1.00
C3       0.27323    -0.08354   0.77567   1.00
O2       0.29287    -0.10248   0.80513   1.00
C3       0.22654    -0.08227   0.72252   1.00
H1       0.20867    -0.09657   0.70081   1.00
C2       0.25012    -0.10439   0.74845   1.00
C5       0.28991    0.02121    0.66264   1.00
H2       0.28824    0.05162    0.65121   1.00
H2       0.26068    0.00734    0.65896   1.00
C5       0.31982    -0.00129   0.63860   1.00
H2       0.32230    -0.03137   0.65071   1.00
H2       0.34881    0.01302    0.64219   1.00
C5       0.30802    -0.00262   0.59527   1.00
H2       0.30523    0.02732    0.58306   1.00
H2       0.27973    -0.01811   0.59151   1.00
C5       0.33927    -0.02445   0.57149   1.00
C5       0.16776    -0.01105   0.71064   1.00
C5       0.33150    -0.11070   0.79319   1.00
H2       0.17088    0.00912    0.73587   1.00
H2       0.15074    -0.03712   0.72016   1.00
H2       0.34744    -0.08300   0.78695   1.00
H2       0.33261    -0.12895   0.76614   1.00
H2       0.36886    -0.19030   0.80629   1.00
H2       0.11871    0.05753    0.71235   1.00
H2       0.09088    0.01237    0.71201   1.00
C2       0.25023    0.10395    0.74733   1.00
C3       0.22511    0.08403    0.77320   1.00
O2       0.19421    0.10326    0.79041   1.00
C3       0.27617    0.08174    0.72412   1.00
H1       0.29647    0.09615    0.70477   1.00
C3a      0.22570    0.04287    0.77456   1.00
H1       0.20475    0.02798    0.79287   1.00
C3b      0.27582    0.04078    0.72464   1.00
C4       0.25041    0.02100    0.74992   1.00
O3       0.20449    -0.02167   0.69537   1.00
C5       0.20331    0.11280    0.82941   1.00
H2       0.20986    0.08609    0.84690   1.00
C5       0.16769    0.13326    0.84648   1.00
H2       0.22897    0.13274    0.83084   1.00
H2       0.14581    0.11068    0.85470   1.00
H2       0.15429    0.15093    0.82271   1.00
C5       0.17762    0.15918    0.88180   1.00
H2       0.19371    0.14176    0.90391   1.00
C5       0.14023    0.17547    0.90063   1.00
H2       0.19562    0.18493    0.87298   1.00
C5       0.14537    0.00983    0.67836   1.00
H2       0.13641    -0.01215   0.65615   1.00
H2       0.16568    0.03048    0.66359   1.00
C5       0.10967    0.03200    0.69424   1.00
C5       0.08501    0.04775    0.66016   1.00
H2       0.39391    -0.19286   0.87045   1.00
C5       0.44738    -0.18912   0.83514   1.00
H2       0.41567    -0.14323   0.86689   1.00
C5       0.32333    -0.03337   0.53044   1.00
H2       0.36649    -0.00551   0.56893   1.00
H2       0.34698    -0.05293   0.58682   1.00
C5       0.15047    0.19503    0.93976   1.00
H2       0.12644    0.19789    0.88031   1.00
H2       0.11876    0.15063    0.90594   1.00
H2       0.10469    0.06398    0.63882   1.00
H2       0.07024    0.02239    0.64452   1.00
C5       0.05374    0.07583    0.67602   1.00
H2       0.44271    -0.20116   0.80450   1.00
H2       0.47099    -0.16571   0.83437   1.00
H2       0.45685    -0.21374   0.85540   1.00
H2       0.29401    -0.01820   0.52640   1.00
H2       0.34478    -0.02229   0.50757   1.00
H2       0.31939    -0.06621   0.52698   1.00
H2       0.17943    0.21111    0.93687   1.00
H2       0.12655    0.21664    0.94794   1.00
H2       0.15299    0.17181    0.96343   1.00
H2       0.06552    0.10693    0.67558   1.00
H2       0.02653    0.07402    0.65699   1.00
H2       0.04602    0.06734    0.70723   1.00
C5       0.32715    0.35061    0.36782   1.00
H2       0.34240    0.32645    0.35255   1.00
H2       0.34850    0.36252    0.38910   1.00
C5       0.31544    0.38216    0.33806   1.00
C5       0.35022    0.40903    0.32877   1.00
H2       0.29105    0.40008    0.34985   1.00
O3       0.20199    0.30206    0.52000   1.00
C4       0.25008    0.24959    0.47900   1.00
C3c      0.27621    0.27276    0.45757   1.00
H1       0.29697    0.29102    0.47275   1.00
C3d      0.22364    0.22558    0.45865   1.00
C3       0.27567    0.27323    0.41646   1.00
O2       0.30513    0.29287    0.39752   1.00
C3       0.22252    0.22654    0.41773   1.00
H1       0.20081    0.20867    0.40343   1.00
C2       0.24845    0.25012    0.39561   1.00
C5       0.16264    0.28991    0.52121   1.00
H2       0.15121    0.28824    0.55162   1.00
H2       0.15896    0.26068    0.50734   1.00
C5       0.13860    0.31982    0.49871   1.00
H2       0.15071    0.32230    0.46863   1.00
H2       0.14219    0.34881    0.51302   1.00
C5       0.09527    0.30802    0.49738   1.00
H2       0.08306    0.30523    0.52732   1.00
H2       0.09151    0.27973    0.48189   1.00
C5       0.07149    0.33927    0.47555   1.00
C5       0.21064    0.16776    0.48895   1.00
C5       0.29319    0.33150    0.38930   1.00
H2       0.23587    0.17088    0.50912   1.00
H2       0.22016    0.15074    0.46288   1.00
H2       0.28695    0.34744    0.41700   1.00
H2       0.26614    0.33261    0.37105   1.00
H2       0.30629    0.36886    0.30970   1.00
H2       0.21235    0.11871    0.55753   1.00
H2       0.21201    0.09088    0.51237   1.00
C2       0.24733    0.25023    0.60395   1.00
C3       0.27320    0.22511    0.58403   1.00
O2       0.29041    0.19421    0.60326   1.00
C3       0.22412    0.27617    0.58174   1.00
H1       0.20477    0.29647    0.59615   1.00
C3a      0.27456    0.22570    0.54287   1.00
H1       0.29287    0.20475    0.52798   1.00
C3b      0.22464    0.27582    0.54078   1.00
C4       0.24992    0.25041    0.52100   1.00
O3       0.19537    0.20449    0.47833   1.00
C5       0.32941    0.20331    0.61280   1.00
H2       0.34690    0.20986    0.58609   1.00
C5       0.34648    0.16769    0.63326   1.00
H2       0.33084    0.22897    0.63274   1.00
H2       0.35470    0.14581    0.61068   1.00
H2       0.32271    0.15429    0.65093   1.00
C5       0.38180    0.17762    0.65918   1.00
H2       0.40391    0.19371    0.64176   1.00
C5       0.40063    0.14023    0.67547   1.00
H2       0.37298    0.19562    0.68493   1.00
C5       0.17836    0.14537    0.50983   1.00
H2       0.15615    0.13641    0.48785   1.00
H2       0.16359    0.16568    0.53048   1.00
C5       0.19424    0.10967    0.53200   1.00
C5       0.16016    0.08501    0.54775   1.00
H2       0.37045    0.39391    0.30714   1.00
C5       0.33514    0.44738    0.31088   1.00
H2       0.36689    0.41567    0.35677   1.00
C5       0.03044    0.32333    0.46663   1.00
H2       0.06893    0.36649    0.49449   1.00
H2       0.08682    0.34698    0.44707   1.00
C5       0.43976    0.15047    0.69503   1.00
H2       0.38031    0.12644    0.69789   1.00
H2       0.40594    0.11876    0.65063   1.00
H2       0.13882    0.10469    0.56398   1.00
H2       0.14452    0.07024    0.52239   1.00
C5       0.17602    0.05374    0.57583   1.00
H2       0.30450    0.44271    0.29884   1.00
H2       0.33437    0.47099    0.33429   1.00
H2       0.35540    0.45685    0.28626   1.00
H2       0.02640    0.29401    0.48180   1.00
H2       0.00757    0.34478    0.47771   1.00
H2       0.02698    0.31939    0.43379   1.00
H2       0.43687    0.17943    0.71111   1.00
H2       0.44794    0.12655    0.71664   1.00
H2       0.46343    0.15299    0.67181   1.00
H2       0.17558    0.06552    0.60693   1.00
H2       0.15699    0.02653    0.57402   1.00
H2       0.20723    0.04602    0.56734   1.00
C5       0.32715    0.64939    0.63218   1.00
H2       0.34240    0.67355    0.64745   1.00
H2       0.34850    0.63748    0.61090   1.00
C5       0.31544    0.61784    0.66194   1.00
C5       0.35022    0.59097    0.67123   1.00
H2       0.29105    0.59992    0.65015   1.00
O3       0.20199    0.69794    0.48000   1.00
C4       0.25008    0.75041    0.52100   1.00
C3c      0.27621    0.72724    0.54243   1.00
H1       0.29697    0.70898    0.52725   1.00
C3d      0.22364    0.77442    0.54135   1.00
C3       0.27567    0.72677    0.58354   1.00
O2       0.30513    0.70713    0.60248   1.00
C3       0.22252    0.77346    0.58227   1.00
H1       0.20081    0.79133    0.59657   1.00
C2       0.24845    0.74988    0.60439   1.00
C5       0.16264    0.71009    0.47879   1.00
H2       0.15121    0.71176    0.44838   1.00
H2       0.15896    0.73932    0.49266   1.00
C5       0.13860    0.68018    0.50129   1.00
H2       0.15071    0.67770    0.53137   1.00
H2       0.14219    0.65119    0.48698   1.00
C5       0.09527    0.69198    0.50262   1.00
H2       0.08306    0.69477    0.47268   1.00
H2       0.09151    0.72027    0.51811   1.00
C5       0.07149    0.66073    0.52445   1.00
C5       0.21064    0.83224    0.51105   1.00
C5       0.29319    0.66850    0.61070   1.00
H2       0.23587    0.82912    0.49088   1.00
H2       0.22016    0.84926    0.53712   1.00
H2       0.28695    0.65256    0.58300   1.00
H2       0.26614    0.66739    0.62895   1.00
H2       0.30629    0.63114    0.69030   1.00
H2       0.21235    0.88129    0.44247   1.00
H2       0.21201    0.90912    0.48763   1.00
C2       0.24733    0.74977    0.39605   1.00
C3       0.27320    0.77489    0.41597   1.00
O2       0.29041    0.80579    0.39674   1.00
C3       0.22412    0.72383    0.41826   1.00
H1       0.20477    0.70353    0.40385   1.00
C3a      0.27456    0.77430    0.45713   1.00
H1       0.29287    0.79525    0.47202   1.00
C3b      0.22464    0.72418    0.45922   1.00
C4       0.24992    0.74959    0.47900   1.00
O3       0.19537    0.79551    0.52167   1.00
C5       0.32941    0.79669    0.38720   1.00
H2       0.34690    0.79014    0.41391   1.00
C5       0.34648    0.83231    0.36674   1.00
H2       0.33084    0.77103    0.36726   1.00
H2       0.35470    0.85419    0.38932   1.00
H2       0.32271    0.84571    0.34907   1.00
C5       0.38180    0.82238    0.34082   1.00
H2       0.40391    0.80629    0.35824   1.00
C5       0.40063    0.85977    0.32453   1.00
H2       0.37298    0.80438    0.31507   1.00
C5       0.17836    0.85463    0.49017   1.00
H2       0.15615    0.86359    0.51215   1.00
H2       0.16359    0.83432    0.46952   1.00
C5       0.19424    0.89033    0.46800   1.00
C5       0.16016    0.91499    0.45225   1.00
H2       0.37045    0.60609    0.69286   1.00
C5       0.33514    0.55262    0.68912   1.00
H2       0.36689    0.58433    0.64323   1.00
C5       0.03044    0.67667    0.53337   1.00
H2       0.06893    0.63351    0.50551   1.00
H2       0.08682    0.65302    0.55293   1.00
C5       0.43976    0.84953    0.30497   1.00
H2       0.38031    0.87356    0.30211   1.00
H2       0.40594    0.88124    0.34937   1.00
H2       0.13882    0.89531    0.43602   1.00
H2       0.14452    0.92976    0.47761   1.00
C5       0.17602    0.94626    0.42417   1.00
H2       0.30450    0.55729    0.70116   1.00
H2       0.33437    0.52901    0.66571   1.00
H2       0.35540    0.54315    0.71374   1.00
H2       0.02640    0.70599    0.51820   1.00
H2       0.00757    0.65522    0.52229   1.00
H2       0.02698    0.68061    0.56621   1.00
H2       0.43687    0.82057    0.28889   1.00
H2       0.44794    0.87345    0.28336   1.00
H2       0.46343    0.84701    0.32819   1.00
H2       0.17558    0.93448    0.39307   1.00
H2       0.15699    0.97347    0.42598   1.00
H2       0.20723    0.95398    0.43266   1.00
C5       0.14939    1.13218    0.32715   1.00
H2       0.17355    1.14745    0.34240   1.00
H2       0.13748    1.11090    0.34850   1.00
C5       0.11784    1.16194    0.31544   1.00
C5       0.09097    1.17123    0.35022   1.00
H2       0.09992    1.15015    0.29105   1.00
O3       0.19794    0.98000    0.20199   1.00
C4       0.25041    1.02100    0.25008   1.00
C3c      0.22724    1.04243    0.27621   1.00
H1       0.20898    1.02725    0.29697   1.00
C3d      0.27442    1.04135    0.22364   1.00
C3       0.22677    1.08354    0.27567   1.00
O2       0.20713    1.10248    0.30513   1.00
C3       0.27346    1.08227    0.22252   1.00
H1       0.29133    1.09657    0.20081   1.00
C2       0.24988    1.10439    0.24845   1.00
C5       0.21009    0.97879    0.16264   1.00
H2       0.21176    0.94838    0.15121   1.00
H2       0.23932    0.99266    0.15896   1.00
C5       0.18018    1.00129    0.13860   1.00
H2       0.17770    1.03137    0.15071   1.00
H2       0.15119    0.98698    0.14219   1.00
C5       0.19198    1.00262    0.09527   1.00
H2       0.19477    0.97268    0.08306   1.00
H2       0.22027    1.01811    0.09151   1.00
C5       0.16073    1.02445    0.07149   1.00
C5       0.33224    1.01105    0.21064   1.00
C5       0.16850    1.11070    0.29319   1.00
H2       0.32912    0.99088    0.23587   1.00
H2       0.34926    1.03712    0.22016   1.00
H2       0.15256    1.08300    0.28695   1.00
H2       0.16739    1.12895    0.26614   1.00
H2       0.13114    1.19030    0.30629   1.00
H2       0.38129    0.94247    0.21235   1.00
H2       0.40912    0.98763    0.21201   1.00
C2       0.24977    0.89605    0.24733   1.00
C3       0.27489    0.91597    0.27320   1.00
O2       0.30579    0.89674    0.29041   1.00
C3       0.22383    0.91826    0.22412   1.00
H1       0.20353    0.90385    0.20477   1.00
C3a      0.27430    0.95713    0.27456   1.00
H1       0.29525    0.97202    0.29287   1.00
C3b      0.22418    0.95922    0.22464   1.00
C4       0.24959    0.97900    0.24992   1.00
O3       0.29551    1.02167    0.19537   1.00
C5       0.29669    0.88720    0.32941   1.00
H2       0.29014    0.91391    0.34690   1.00
C5       0.33231    0.86674    0.34648   1.00
H2       0.27103    0.86726    0.33084   1.00
H2       0.35419    0.88932    0.35470   1.00
H2       0.34571    0.84907    0.32271   1.00
C5       0.32238    0.84082    0.38180   1.00
H2       0.30629    0.85824    0.40391   1.00
C5       0.35977    0.82453    0.40063   1.00
H2       0.30438    0.81507    0.37298   1.00
C5       0.35463    0.99017    0.17836   1.00
H2       0.36359    1.01215    0.15615   1.00
H2       0.33432    0.96952    0.16359   1.00
C5       0.39033    0.96800    0.19424   1.00
C5       0.41499    0.95225    0.16016   1.00
H2       0.10609    1.19286    0.37045   1.00
C5       0.05262    1.18912    0.33514   1.00
H2       0.08433    1.14323    0.36689   1.00
C5       0.17667    1.03337    0.03044   1.00
H2       0.13351    1.00551    0.06893   1.00
H2       0.15302    1.05293    0.08682   1.00
C5       0.34953    0.80497    0.43976   1.00
H2       0.37356    0.80211    0.38031   1.00
H2       0.38124    0.84937    0.40594   1.00
H2       0.39531    0.93602    0.13882   1.00
H2       0.42976    0.97761    0.14452   1.00
C5       0.44626    0.92417    0.17602   1.00
H2       0.05729    1.20116    0.30450   1.00
H2       0.02901    1.16571    0.33437   1.00
H2       0.04315    1.21374    0.35540   1.00
H2       0.20599    1.01820    0.02640   1.00
H2       0.15522    1.02229    0.00757   1.00
H2       0.18061    1.06621    0.02698   1.00
H2       0.32057    0.78889    0.43687   1.00
H2       0.37345    0.78336    0.44794   1.00
H2       0.34701    0.82819    0.46343   1.00
H2       0.43448    0.89307    0.17558   1.00
H2       0.47347    0.92598    0.15699   1.00
H2       0.45398    0.93266    0.20723   1.00
C5       -0.13218   0.82715    0.35061   1.00
H2       -0.14745   0.84240    0.32645   1.00
H2       -0.11090   0.84850    0.36252   1.00
C5       -0.16194   0.81544    0.38216   1.00
C5       -0.17123   0.85022    0.40903   1.00
H2       -0.15015   0.79105    0.40008   1.00
O3       0.02000    0.70199    0.30206   1.00
C4       -0.02100   0.75008    0.24959   1.00
C3c      -0.04243   0.77621    0.27276   1.00
H1       -0.02725   0.79697    0.29102   1.00
C3d      -0.04135   0.72364    0.22558   1.00
C3       -0.08354   0.77567    0.27323   1.00
O2       -0.10248   0.80513    0.29287   1.00
C3       -0.08227   0.72252    0.22654   1.00
H1       -0.09657   0.70081    0.20867   1.00
C2       -0.10439   0.74845    0.25012   1.00
C5       0.02121    0.66264    0.28991   1.00
H2       0.05162    0.65121    0.28824   1.00
H2       0.00734    0.65896    0.26068   1.00
C5       -0.00129   0.63860    0.31982   1.00
H2       -0.03137   0.65071    0.32230   1.00
H2       0.01302    0.64219    0.34881   1.00
C5       -0.00262   0.59527    0.30802   1.00
H2       0.02732    0.58306    0.30523   1.00
H2       -0.01811   0.59151    0.27973   1.00
C5       -0.02445   0.57149    0.33927   1.00
C5       -0.01105   0.71064    0.16776   1.00
C5       -0.11070   0.79319    0.33150   1.00
H2       0.00912    0.73587    0.17088   1.00
H2       -0.03712   0.72016    0.15074   1.00
H2       -0.08300   0.78695    0.34744   1.00
H2       -0.12895   0.76614    0.33261   1.00
H2       -0.19030   0.80629    0.36886   1.00
H2       0.05753    0.71235    0.11871   1.00
H2       0.01237    0.71201    0.09088   1.00
C2       0.10395    0.74733    0.25023   1.00
C3       0.08403    0.77320    0.22511   1.00
O2       0.10326    0.79041    0.19421   1.00
C3       0.08174    0.72412    0.27617   1.00
H1       0.09615    0.70477    0.29647   1.00
C3a      0.04287    0.77456    0.22570   1.00
H1       0.02798    0.79287    0.20475   1.00
C3b      0.04078    0.72464    0.27582   1.00
C4       0.02100    0.74992    0.25041   1.00
O3       -0.02167   0.69537    0.20449   1.00
C5       0.11280    0.82941    0.20331   1.00
H2       0.08609    0.84690    0.20986   1.00
C5       0.13326    0.84648    0.16769   1.00
H2       0.13274    0.83084    0.22897   1.00
H2       0.11068    0.85470    0.14581   1.00
H2       0.15093    0.82271    0.15429   1.00
C5       0.15918    0.88180    0.17762   1.00
H2       0.14176    0.90391    0.19371   1.00
C5       0.17547    0.90063    0.14023   1.00
H2       0.18493    0.87298    0.19562   1.00
C5       0.00983    0.67836    0.14537   1.00
H2       -0.01215   0.65615    0.13641   1.00
H2       0.03048    0.66359    0.16568   1.00
C5       0.03200    0.69424    0.10967   1.00
C5       0.04775    0.66016    0.08501   1.00
H2       -0.19286   0.87045    0.39391   1.00
C5       -0.18912   0.83514    0.44738   1.00
H2       -0.14323   0.86689    0.41567   1.00
C5       -0.03337   0.53044    0.32333   1.00
H2       -0.00551   0.56893    0.36649   1.00
H2       -0.05293   0.58682    0.34698   1.00
C5       0.19503    0.93976    0.15047   1.00
H2       0.19789    0.88031    0.12644   1.00
H2       0.15063    0.90594    0.11876   1.00
H2       0.06398    0.63882    0.10469   1.00
H2       0.02239    0.64452    0.07024   1.00
C5       0.07583    0.67602    0.05374   1.00
H2       -0.20116   0.80450    0.44271   1.00
H2       -0.16571   0.83437    0.47099   1.00
H2       -0.21374   0.85540    0.45685   1.00
H2       -0.01820   0.52640    0.29401   1.00
H2       -0.02229   0.50757    0.34478   1.00
H2       -0.06621   0.52698    0.31939   1.00
H2       0.21111    0.93687    0.17943   1.00
H2       0.21664    0.94794    0.12655   1.00
H2       0.17181    0.96343    0.15299   1.00
H2       0.10693    0.67558    0.06552   1.00
H2       0.07402    0.65699    0.02653   1.00
H2       0.06734    0.70723    0.04602   1.00
C5       0.63218    0.82715    0.14939   1.00
H2       0.64745    0.84240    0.17355   1.00
H2       0.61090    0.84850    0.13748   1.00
C5       0.66194    0.81544    0.11784   1.00
C5       0.67123    0.85022    0.09097   1.00
H2       0.65015    0.79105    0.09992   1.00
O3       0.48000    0.70199    0.19794   1.00
C4       0.52100    0.75008    0.25041   1.00
C3c      0.54243    0.77621    0.22724   1.00
H1       0.52725    0.79697    0.20898   1.00
C3d      0.54135    0.72364    0.27442   1.00
C3       0.58354    0.77567    0.22677   1.00
O2       0.60248    0.80513    0.20713   1.00
C3       0.58227    0.72252    0.27346   1.00
H1       0.59657    0.70081    0.29133   1.00
C2       0.60439    0.74845    0.24988   1.00
C5       0.47879    0.66264    0.21009   1.00
H2       0.44838    0.65121    0.21176   1.00
H2       0.49266    0.65896    0.23932   1.00
C5       0.50129    0.63860    0.18018   1.00
H2       0.53137    0.65071    0.17770   1.00
H2       0.48698    0.64219    0.15119   1.00
C5       0.50262    0.59527    0.19198   1.00
H2       0.47268    0.58306    0.19477   1.00
H2       0.51811    0.59151    0.22027   1.00
C5       0.52445    0.57149    0.16073   1.00
C5       0.51105    0.71064    0.33224   1.00
C5       0.61070    0.79319    0.16850   1.00
H2       0.49088    0.73587    0.32912   1.00
H2       0.53712    0.72016    0.34926   1.00
H2       0.58300    0.78695    0.15256   1.00
H2       0.62895    0.76614    0.16739   1.00
H2       0.69030    0.80629    0.13114   1.00
H2       0.44247    0.71235    0.38129   1.00
H2       0.48763    0.71201    0.40912   1.00
C2       0.39605    0.74733    0.24977   1.00
C3       0.41597    0.77320    0.27489   1.00
O2       0.39674    0.79041    0.30579   1.00
C3       0.41826    0.72412    0.22383   1.00
H1       0.40385    0.70477    0.20353   1.00
C3a      0.45713    0.77456    0.27430   1.00
H1       0.47202    0.79287    0.29525   1.00
C3b      0.45922    0.72464    0.22418   1.00
C4       0.47900    0.74992    0.24959   1.00
O3       0.52167    0.69537    0.29551   1.00
C5       0.38720    0.82941    0.29669   1.00
H2       0.41391    0.84690    0.29014   1.00
C5       0.36674    0.84648    0.33231   1.00
H2       0.36726    0.83084    0.27103   1.00
H2       0.38932    0.85470    0.35419   1.00
H2       0.34907    0.82271    0.34571   1.00
C5       0.34082    0.88180    0.32238   1.00
H2       0.35824    0.90391    0.30629   1.00
C5       0.32453    0.90063    0.35977   1.00
H2       0.31507    0.87298    0.30438   1.00
C5       0.49017    0.67836    0.35463   1.00
H2       0.51215    0.65615    0.36359   1.00
H2       0.46952    0.66359    0.33432   1.00
C5       0.46800    0.69424    0.39033   1.00
C5       0.45225    0.66016    0.41499   1.00
H2       0.69286    0.87045    0.10609   1.00
C5       0.68912    0.83514    0.05262   1.00
H2       0.64323    0.86689    0.08433   1.00
C5       0.53337    0.53044    0.17667   1.00
H2       0.50551    0.56893    0.13351   1.00
H2       0.55293    0.58682    0.15302   1.00
C5       0.30497    0.93976    0.34953   1.00
H2       0.30211    0.88031    0.37356   1.00
H2       0.34937    0.90594    0.38124   1.00
H2       0.43602    0.63882    0.39531   1.00
H2       0.47761    0.64452    0.42976   1.00
C5       0.42417    0.67602    0.44626   1.00
H2       0.70116    0.80450    0.05729   1.00
H2       0.66571    0.83437    0.02901   1.00
H2       0.71374    0.85540    0.04315   1.00
H2       0.51820    0.52640    0.20599   1.00
H2       0.52229    0.50757    0.15522   1.00
H2       0.56621    0.52698    0.18061   1.00
H2       0.28889    0.93687    0.32057   1.00
H2       0.28336    0.94794    0.37345   1.00
H2       0.32819    0.96343    0.34701   1.00
H2       0.39307    0.67558    0.43448   1.00
H2       0.42598    0.65699    0.47347   1.00
H2       0.43266    0.70723    0.45398   1.00
C5       0.35061    0.36782    0.32715   1.00
H2       0.32645    0.35255    0.34240   1.00
H2       0.36252    0.38910    0.34850   1.00
C5       0.38216    0.33806    0.31544   1.00
C5       0.40903    0.32877    0.35022   1.00
H2       0.40008    0.34985    0.29105   1.00
O3       0.30206    0.52000    0.20199   1.00
C4       0.24959    0.47900    0.25008   1.00
C3c      0.27276    0.45757    0.27621   1.00
H1       0.29102    0.47275    0.29697   1.00
C3d      0.22558    0.45865    0.22364   1.00
C3       0.27323    0.41646    0.27567   1.00
O2       0.29287    0.39752    0.30513   1.00
C3       0.22654    0.41773    0.22252   1.00
H1       0.20867    0.40343    0.20081   1.00
C2       0.25012    0.39561    0.24845   1.00
C5       0.28991    0.52121    0.16264   1.00
H2       0.28824    0.55162    0.15121   1.00
H2       0.26068    0.50734    0.15896   1.00
C5       0.31982    0.49871    0.13860   1.00
H2       0.32230    0.46863    0.15071   1.00
H2       0.34881    0.51302    0.14219   1.00
C5       0.30802    0.49738    0.09527   1.00
H2       0.30523    0.52732    0.08306   1.00
H2       0.27973    0.48189    0.09151   1.00
C5       0.33927    0.47555    0.07149   1.00
C5       0.16776    0.48895    0.21064   1.00
C5       0.33150    0.38930    0.29319   1.00
H2       0.17088    0.50912    0.23587   1.00
H2       0.15074    0.46288    0.22016   1.00
H2       0.34744    0.41700    0.28695   1.00
H2       0.33261    0.37105    0.26614   1.00
H2       0.36886    0.30970    0.30629   1.00
H2       0.11871    0.55753    0.21235   1.00
H2       0.09088    0.51237    0.21201   1.00
C2       0.25023    0.60395    0.24733   1.00
C3       0.22511    0.58403    0.27320   1.00
O2       0.19421    0.60326    0.29041   1.00
C3       0.27617    0.58174    0.22412   1.00
H1       0.29647    0.59615    0.20477   1.00
C3a      0.22570    0.54287    0.27456   1.00
H1       0.20475    0.52798    0.29287   1.00
C3b      0.27582    0.54078    0.22464   1.00
C4       0.25041    0.52100    0.24992   1.00
O3       0.20449    0.47833    0.19537   1.00
C5       0.20331    0.61280    0.32941   1.00
H2       0.20986    0.58609    0.34690   1.00
C5       0.16769    0.63326    0.34648   1.00
H2       0.22897    0.63274    0.33084   1.00
H2       0.14581    0.61068    0.35470   1.00
H2       0.15429    0.65093    0.32271   1.00
C5       0.17762    0.65918    0.38180   1.00
H2       0.19371    0.64176    0.40391   1.00
C5       0.14023    0.67547    0.40063   1.00
H2       0.19562    0.68493    0.37298   1.00
C5       0.14537    0.50983    0.17836   1.00
H2       0.13641    0.48785    0.15615   1.00
H2       0.16568    0.53048    0.16359   1.00
C5       0.10967    0.53200    0.19424   1.00
C5       0.08501    0.54775    0.16016   1.00
H2       0.39391    0.30714    0.37045   1.00
C5       0.44738    0.31088    0.33514   1.00
H2       0.41567    0.35677    0.36689   1.00
C5       0.32333    0.46663    0.03044   1.00
H2       0.36649    0.49449    0.06893   1.00
H2       0.34698    0.44707    0.08682   1.00
C5       0.15047    0.69503    0.43976   1.00
H2       0.12644    0.69789    0.38031   1.00
H2       0.11876    0.65063    0.40594   1.00
H2       0.10469    0.56398    0.13882   1.00
H2       0.07024    0.52239    0.14452   1.00
C5       0.05374    0.57583    0.17602   1.00
H2       0.44271    0.29884    0.30450   1.00
H2       0.47099    0.33429    0.33437   1.00
H2       0.45685    0.28626    0.35540   1.00
H2       0.29401    0.48180    0.02640   1.00
H2       0.34478    0.47771    0.00757   1.00
H2       0.31939    0.43379    0.02698   1.00
H2       0.17943    0.71111    0.43687   1.00
H2       0.12655    0.71664    0.44794   1.00
H2       0.15299    0.67181    0.46343   1.00
H2       0.06552    0.60693    0.17558   1.00
H2       0.02653    0.57402    0.15699   1.00
H2       0.04602    0.56734    0.20723   1.00
C5       0.32715    0.85061    -0.13218   1.00
H2       0.34240    0.82645    -0.14745   1.00
H2       0.34850    0.86252    -0.11090   1.00
C5       0.31544    0.88216    -0.16194   1.00
C5       0.35022    0.90903    -0.17123   1.00
H2       0.29105    0.90008    -0.15015   1.00
O3       0.20199    0.80206    0.02000   1.00
C4       0.25008    0.74959    -0.02100   1.00
C3c      0.27621    0.77276    -0.04243   1.00
H1       0.29697    0.79102    -0.02725   1.00
C3d      0.22364    0.72558    -0.04135   1.00
C3       0.27567    0.77323    -0.08354   1.00
O2       0.30513    0.79287    -0.10248   1.00
C3       0.22252    0.72654    -0.08227   1.00
H1       0.20081    0.70867    -0.09657   1.00
C2       0.24845    0.75012    -0.10439   1.00
C5       0.16264    0.78991    0.02121   1.00
H2       0.15121    0.78824    0.05162   1.00
H2       0.15896    0.76068    0.00734   1.00
C5       0.13860    0.81982    -0.00129   1.00
H2       0.15071    0.82230    -0.03137   1.00
H2       0.14219    0.84881    0.01302   1.00
C5       0.09527    0.80802    -0.00262   1.00
H2       0.08306    0.80523    0.02732   1.00
H2       0.09151    0.77973    -0.01811   1.00
C5       0.07149    0.83927    -0.02445   1.00
C5       0.21064    0.66776    -0.01105   1.00
C5       0.29319    0.83150    -0.11070   1.00
H2       0.23587    0.67088    0.00912   1.00
H2       0.22016    0.65074    -0.03712   1.00
H2       0.28695    0.84744    -0.08300   1.00
H2       0.26614    0.83261    -0.12895   1.00
H2       0.30629    0.86886    -0.19030   1.00
H2       0.21235    0.61871    0.05753   1.00
H2       0.21201    0.59088    0.01237   1.00
C2       0.24733    0.75023    0.10395   1.00
C3       0.27320    0.72511    0.08403   1.00
O2       0.29041    0.69421    0.10326   1.00
C3       0.22412    0.77617    0.08174   1.00
H1       0.20477    0.79647    0.09615   1.00
C3a      0.27456    0.72570    0.04287   1.00
H1       0.29287    0.70475    0.02798   1.00
C3b      0.22464    0.77582    0.04078   1.00
C4       0.24992    0.75041    0.02100   1.00
O3       0.19537    0.70449    -0.02167   1.00
C5       0.32941    0.70331    0.11280   1.00
H2       0.34690    0.70986    0.08609   1.00
C5       0.34648    0.66769    0.13326   1.00
H2       0.33084    0.72897    0.13274   1.00
H2       0.35470    0.64581    0.11068   1.00
H2       0.32271    0.65429    0.15093   1.00
C5       0.38180    0.67762    0.15918   1.00
H2       0.40391    0.69371    0.14176   1.00
C5       0.40063    0.64023    0.17547   1.00
H2       0.37298    0.69562    0.18493   1.00
C5       0.17836    0.64537    0.00983   1.00
H2       0.15615    0.63641    -0.01215   1.00
H2       0.16359    0.66568    0.03048   1.00
C5       0.19424    0.60967    0.03200   1.00
C5       0.16016    0.58501    0.04775   1.00
H2       0.37045    0.89391    -0.19286   1.00
C5       0.33514    0.94738    -0.18912   1.00
H2       0.36689    0.91567    -0.14323   1.00
C5       0.03044    0.82333    -0.03337   1.00
H2       0.06893    0.86649    -0.00551   1.00
H2       0.08682    0.84698    -0.05293   1.00
C5       0.43976    0.65047    0.19503   1.00
H2       0.38031    0.62644    0.19789   1.00
H2       0.40594    0.61876    0.15063   1.00
H2       0.13882    0.60469    0.06398   1.00
H2       0.14452    0.57024    0.02239   1.00
C5       0.17602    0.55374    0.07583   1.00
H2       0.30450    0.94271    -0.20116   1.00
H2       0.33437    0.97099    -0.16571   1.00
H2       0.35540    0.95685    -0.21374   1.00
H2       0.02640    0.79401    -0.01820   1.00
H2       0.00757    0.84478    -0.02229   1.00
H2       0.02698    0.81939    -0.06621   1.00
H2       0.43687    0.67943    0.21111   1.00
H2       0.44794    0.62655    0.21664   1.00
H2       0.46343    0.65299    0.17181   1.00
H2       0.17558    0.56552    0.10693   1.00
H2       0.15699    0.52653    0.07402   1.00
H2       0.20723    0.54602    0.06734   1.00
C5       0.82715    0.14939    0.63218   1.00
H2       0.84240    0.17355    0.64745   1.00
H2       0.84850    0.13748    0.61090   1.00
C5       0.81544    0.11784    0.66194   1.00
C5       0.85022    0.09097    0.67123   1.00
H2       0.79105    0.09992    0.65015   1.00
O3       0.70199    0.19794    0.48000   1.00
C4       0.75008    0.25041    0.52100   1.00
C3c      0.77621    0.22724    0.54243   1.00
H1       0.79697    0.20898    0.52725   1.00
C3d      0.72364    0.27442    0.54135   1.00
C3       0.77567    0.22677    0.58354   1.00
O2       0.80513    0.20713    0.60248   1.00
C3       0.72252    0.27346    0.58227   1.00
H1       0.70081    0.29133    0.59657   1.00
C2       0.74845    0.24988    0.60439   1.00
C5       0.66264    0.21009    0.47879   1.00
H2       0.65121    0.21176    0.44838   1.00
H2       0.65896    0.23932    0.49266   1.00
C5       0.63860    0.18018    0.50129   1.00
H2       0.65071    0.17770    0.53137   1.00
H2       0.64219    0.15119    0.48698   1.00
C5       0.59527    0.19198    0.50262   1.00
H2       0.58306    0.19477    0.47268   1.00
H2       0.59151    0.22027    0.51811   1.00
C5       0.57149    0.16073    0.52445   1.00
C5       0.71064    0.33224    0.51105   1.00
C5       0.79319    0.16850    0.61070   1.00
H2       0.73587    0.32912    0.49088   1.00
H2       0.72016    0.34926    0.53712   1.00
H2       0.78695    0.15256    0.58300   1.00
H2       0.76614    0.16739    0.62895   1.00
H2       0.80629    0.13114    0.69030   1.00
H2       0.71235    0.38129    0.44247   1.00
H2       0.71201    0.40912    0.48763   1.00
C2       0.74733    0.24977    0.39605   1.00
C3       0.77320    0.27489    0.41597   1.00
O2       0.79041    0.30579    0.39674   1.00
C3       0.72412    0.22383    0.41826   1.00
H1       0.70477    0.20353    0.40385   1.00
C3a      0.77456    0.27430    0.45713   1.00
H1       0.79287    0.29525    0.47202   1.00
C3b      0.72464    0.22418    0.45922   1.00
C4       0.74992    0.24959    0.47900   1.00
O3       0.69537    0.29551    0.52167   1.00
C5       0.82941    0.29669    0.38720   1.00
H2       0.84690    0.29014    0.41391   1.00
C5       0.84648    0.33231    0.36674   1.00
H2       0.83084    0.27103    0.36726   1.00
H2       0.85470    0.35419    0.38932   1.00
H2       0.82271    0.34571    0.34907   1.00
C5       0.88180    0.32238    0.34082   1.00
H2       0.90391    0.30629    0.35824   1.00
C5       0.90063    0.35977    0.32453   1.00
H2       0.87298    0.30438    0.31507   1.00
C5       0.67836    0.35463    0.49017   1.00
H2       0.65615    0.36359    0.51215   1.00
H2       0.66359    0.33432    0.46952   1.00
C5       0.69424    0.39033    0.46800   1.00
C5       0.66016    0.41499    0.45225   1.00
H2       0.87045    0.10609    0.69286   1.00
C5       0.83514    0.05262    0.68912   1.00
H2       0.86689    0.08433    0.64323   1.00
C5       0.53044    0.17667    0.53337   1.00
H2       0.56893    0.13351    0.50551   1.00
H2       0.58682    0.15302    0.55293   1.00
C5       0.93976    0.34953    0.30497   1.00
H2       0.88031    0.37356    0.30211   1.00
H2       0.90594    0.38124    0.34937   1.00
H2       0.63882    0.39531    0.43602   1.00
H2       0.64452    0.42976    0.47761   1.00
C5       0.67602    0.44626    0.42417   1.00
H2       0.80450    0.05729    0.70116   1.00
H2       0.83437    0.02901    0.66571   1.00
H2       0.85540    0.04315    0.71374   1.00
H2       0.52640    0.20599    0.51820   1.00
H2       0.50757    0.15522    0.52229   1.00
H2       0.52698    0.18061    0.56621   1.00
H2       0.93687    0.32057    0.28889   1.00
H2       0.94794    0.37345    0.28336   1.00
H2       0.96343    0.34701    0.32819   1.00
H2       0.67558    0.43448    0.39307   1.00
H2       0.65699    0.47347    0.42598   1.00
H2       0.70723    0.45398    0.43266   1.00
C5       0.64939    0.63218    0.32715   1.00
H2       0.67355    0.64745    0.34240   1.00
H2       0.63748    0.61090    0.34850   1.00
C5       0.61784    0.66194    0.31544   1.00
C5       0.59097    0.67123    0.35022   1.00
H2       0.59992    0.65015    0.29105   1.00
O3       0.69794    0.48000    0.20199   1.00
C4       0.75041    0.52100    0.25008   1.00
C3c      0.72724    0.54243    0.27621   1.00
H1       0.70898    0.52725    0.29697   1.00
C3d      0.77442    0.54135    0.22364   1.00
C3       0.72677    0.58354    0.27567   1.00
O2       0.70713    0.60248    0.30513   1.00
C3       0.77346    0.58227    0.22252   1.00
H1       0.79133    0.59657    0.20081   1.00
C2       0.74988    0.60439    0.24845   1.00
C5       0.71009    0.47879    0.16264   1.00
H2       0.71176    0.44838    0.15121   1.00
H2       0.73932    0.49266    0.15896   1.00
C5       0.68018    0.50129    0.13860   1.00
H2       0.67770    0.53137    0.15071   1.00
H2       0.65119    0.48698    0.14219   1.00
C5       0.69198    0.50262    0.09527   1.00
H2       0.69477    0.47268    0.08306   1.00
H2       0.72027    0.51811    0.09151   1.00
C5       0.66073    0.52445    0.07149   1.00
C5       0.83224    0.51105    0.21064   1.00
C5       0.66850    0.61070    0.29319   1.00
H2       0.82912    0.49088    0.23587   1.00
H2       0.84926    0.53712    0.22016   1.00
H2       0.65256    0.58300    0.28695   1.00
H2       0.66739    0.62895    0.26614   1.00
H2       0.63114    0.69030    0.30629   1.00
H2       0.88129    0.44247    0.21235   1.00
H2       0.90912    0.48763    0.21201   1.00
C2       0.74977    0.39605    0.24733   1.00
C3       0.77489    0.41597    0.27320   1.00
O2       0.80579    0.39674    0.29041   1.00
C3       0.72383    0.41826    0.22412   1.00
H1       0.70353    0.40385    0.20477   1.00
C3a      0.77430    0.45713    0.27456   1.00
H1       0.79525    0.47202    0.29287   1.00
C3b      0.72418    0.45922    0.22464   1.00
C4       0.74959    0.47900    0.24992   1.00
O3       0.79551    0.52167    0.19537   1.00
C5       0.79669    0.38720    0.32941   1.00
H2       0.79014    0.41391    0.34690   1.00
C5       0.83231    0.36674    0.34648   1.00
H2       0.77103    0.36726    0.33084   1.00
H2       0.85419    0.38932    0.35470   1.00
H2       0.84571    0.34907    0.32271   1.00
C5       0.82238    0.34082    0.38180   1.00
H2       0.80629    0.35824    0.40391   1.00
C5       0.85977    0.32453    0.40063   1.00
H2       0.80438    0.31507    0.37298   1.00
C5       0.85463    0.49017    0.17836   1.00
H2       0.86359    0.51215    0.15615   1.00
H2       0.83432    0.46952    0.16359   1.00
C5       0.89033    0.46800    0.19424   1.00
C5       0.91499    0.45225    0.16016   1.00
H2       0.60609    0.69286    0.37045   1.00
C5       0.55262    0.68912    0.33514   1.00
H2       0.58433    0.64323    0.36689   1.00
C5       0.67667    0.53337    0.03044   1.00
H2       0.63351    0.50551    0.06893   1.00
H2       0.65302    0.55293    0.08682   1.00
C5       0.84953    0.30497    0.43976   1.00
H2       0.87356    0.30211    0.38031   1.00
H2       0.88124    0.34937    0.40594   1.00
H2       0.89531    0.43602    0.13882   1.00
H2       0.92976    0.47761    0.14452   1.00
C5       0.94626    0.42417    0.17602   1.00
H2       0.55729    0.70116    0.30450   1.00
H2       0.52901    0.66571    0.33437   1.00
H2       0.54315    0.71374    0.35540   1.00
H2       0.70599    0.51820    0.02640   1.00
H2       0.65522    0.52229    0.00757   1.00
H2       0.68061    0.56621    0.02698   1.00
H2       0.82057    0.28889    0.43687   1.00
H2       0.87345    0.28336    0.44794   1.00
H2       0.84701    0.32819    0.46343   1.00
H2       0.93448    0.39307    0.17558   1.00
H2       0.97347    0.42598    0.15699   1.00
H2       0.95398    0.43266    0.20723   1.00
C5       0.36782    0.32715    0.35061   1.00
H2       0.35255    0.34240    0.32645   1.00
H2       0.38910    0.34850    0.36252   1.00
C5       0.33806    0.31544    0.38216   1.00
C5       0.32877    0.35022    0.40903   1.00
H2       0.34985    0.29105    0.40008   1.00
O3       0.52000    0.20199    0.30206   1.00
C4       0.47900    0.25008    0.24959   1.00
C3c      0.45757    0.27621    0.27276   1.00
H1       0.47275    0.29697    0.29102   1.00
C3d      0.45865    0.22364    0.22558   1.00
C3       0.41646    0.27567    0.27323   1.00
O2       0.39752    0.30513    0.29287   1.00
C3       0.41773    0.22252    0.22654   1.00
H1       0.40343    0.20081    0.20867   1.00
C2       0.39561    0.24845    0.25012   1.00
C5       0.52121    0.16264    0.28991   1.00
H2       0.55162    0.15121    0.28824   1.00
H2       0.50734    0.15896    0.26068   1.00
C5       0.49871    0.13860    0.31982   1.00
H2       0.46863    0.15071    0.32230   1.00
H2       0.51302    0.14219    0.34881   1.00
C5       0.49738    0.09527    0.30802   1.00
H2       0.52732    0.08306    0.30523   1.00
H2       0.48189    0.09151    0.27973   1.00
C5       0.47555    0.07149    0.33927   1.00
C5       0.48895    0.21064    0.16776   1.00
C5       0.38930    0.29319    0.33150   1.00
H2       0.50912    0.23587    0.17088   1.00
H2       0.46288    0.22016    0.15074   1.00
H2       0.41700    0.28695    0.34744   1.00
H2       0.37105    0.26614    0.33261   1.00
H2       0.30970    0.30629    0.36886   1.00
H2       0.55753    0.21235    0.11871   1.00
H2       0.51237    0.21201    0.09088   1.00
C2       0.60395    0.24733    0.25023   1.00
C3       0.58403    0.27320    0.22511   1.00
O2       0.60326    0.29041    0.19421   1.00
C3       0.58174    0.22412    0.27617   1.00
H1       0.59615    0.20477    0.29647   1.00
C3a      0.54287    0.27456    0.22570   1.00
H1       0.52798    0.29287    0.20475   1.00
C3b      0.54078    0.22464    0.27582   1.00
C4       0.52100    0.24992    0.25041   1.00
O3       0.47833    0.19537    0.20449   1.00
C5       0.61280    0.32941    0.20331   1.00
H2       0.58609    0.34690    0.20986   1.00
C5       0.63326    0.34648    0.16769   1.00
H2       0.63274    0.33084    0.22897   1.00
H2       0.61068    0.35470    0.14581   1.00
H2       0.65093    0.32271    0.15429   1.00
C5       0.65918    0.38180    0.17762   1.00
H2       0.64176    0.40391    0.19371   1.00
C5       0.67547    0.40063    0.14023   1.00
H2       0.68493    0.37298    0.19562   1.00
C5       0.50983    0.17836    0.14537   1.00
H2       0.48785    0.15615    0.13641   1.00
H2       0.53048    0.16359    0.16568   1.00
C5       0.53200    0.19424    0.10967   1.00
C5       0.54775    0.16016    0.08501   1.00
H2       0.30714    0.37045    0.39391   1.00
C5       0.31088    0.33514    0.44738   1.00
H2       0.35677    0.36689    0.41567   1.00
C5       0.46663    0.03044    0.32333   1.00
H2       0.49449    0.06893    0.36649   1.00
H2       0.44707    0.08682    0.34698   1.00
C5       0.69503    0.43976    0.15047   1.00
H2       0.69789    0.38031    0.12644   1.00
H2       0.65063    0.40594    0.11876   1.00
H2       0.56398    0.13882    0.10469   1.00
H2       0.52239    0.14452    0.07024   1.00
C5       0.57583    0.17602    0.05374   1.00
H2       0.29884    0.30450    0.44271   1.00
H2       0.33429    0.33437    0.47099   1.00
H2       0.28626    0.35540    0.45685   1.00
H2       0.48180    0.02640    0.29401   1.00
H2       0.47771    0.00757    0.34478   1.00
H2       0.43379    0.02698    0.31939   1.00
H2       0.71111    0.43687    0.17943   1.00
H2       0.71664    0.44794    0.12655   1.00
H2       0.67181    0.46343    0.15299   1.00
H2       0.60693    0.17558    0.06552   1.00
H2       0.57402    0.15699    0.02653   1.00
H2       0.56734    0.20723    0.04602   1.00
C5       1.13218    0.32715    0.14939   1.00
H2       1.14745    0.34240    0.17355   1.00
H2       1.11090    0.34850    0.13748   1.00
C5       1.16194    0.31544    0.11784   1.00
C5       1.17123    0.35022    0.09097   1.00
H2       1.15015    0.29105    0.09992   1.00
O3       0.98000    0.20199    0.19794   1.00
C4       1.02100    0.25008    0.25041   1.00
C3c      1.04243    0.27621    0.22724   1.00
H1       1.02725    0.29697    0.20898   1.00
C3d      1.04135    0.22364    0.27442   1.00
C3       1.08354    0.27567    0.22677   1.00
O2       1.10248    0.30513    0.20713   1.00
C3       1.08227    0.22252    0.27346   1.00
H1       1.09657    0.20081    0.29133   1.00
C2       1.10439    0.24845    0.24988   1.00
C5       0.97879    0.16264    0.21009   1.00
H2       0.94838    0.15121    0.21176   1.00
H2       0.99266    0.15896    0.23932   1.00
C5       1.00129    0.13860    0.18018   1.00
H2       1.03137    0.15071    0.17770   1.00
H2       0.98698    0.14219    0.15119   1.00
C5       1.00262    0.09527    0.19198   1.00
H2       0.97268    0.08306    0.19477   1.00
H2       1.01811    0.09151    0.22027   1.00
C5       1.02445    0.07149    0.16073   1.00
C5       1.01105    0.21064    0.33224   1.00
C5       1.11070    0.29319    0.16850   1.00
H2       0.99088    0.23587    0.32912   1.00
H2       1.03712    0.22016    0.34926   1.00
H2       1.08300    0.28695    0.15256   1.00
H2       1.12895    0.26614    0.16739   1.00
H2       1.19030    0.30629    0.13114   1.00
H2       0.94247    0.21235    0.38129   1.00
H2       0.98763    0.21201    0.40912   1.00
C2       0.89605    0.24733    0.24977   1.00
C3       0.91597    0.27320    0.27489   1.00
O2       0.89674    0.29041    0.30579   1.00
C3       0.91826    0.22412    0.22383   1.00
H1       0.90385    0.20477    0.20353   1.00
C3a      0.95713    0.27456    0.27430   1.00
H1       0.97202    0.29287    0.29525   1.00
C3b      0.95922    0.22464    0.22418   1.00
C4       0.97900    0.24992    0.24959   1.00
O3       1.02167    0.19537    0.29551   1.00
C5       0.88720    0.32941    0.29669   1.00
H2       0.91391    0.34690    0.29014   1.00
C5       0.86674    0.34648    0.33231   1.00
H2       0.86726    0.33084    0.27103   1.00
H2       0.88932    0.35470    0.35419   1.00
H2       0.84907    0.32271    0.34571   1.00
C5       0.84082    0.38180    0.32238   1.00
H2       0.85824    0.40391    0.30629   1.00
C5       0.82453    0.40063    0.35977   1.00
H2       0.81507    0.37298    0.30438   1.00
C5       0.99017    0.17836    0.35463   1.00
H2       1.01215    0.15615    0.36359   1.00
H2       0.96952    0.16359    0.33432   1.00
C5       0.96800    0.19424    0.39033   1.00
C5       0.95225    0.16016    0.41499   1.00
H2       1.19286    0.37045    0.10609   1.00
C5       1.18912    0.33514    0.05262   1.00
H2       1.14323    0.36689    0.08433   1.00
C5       1.03337    0.03044    0.17667   1.00
H2       1.00551    0.06893    0.13351   1.00
H2       1.05293    0.08682    0.15302   1.00
C5       0.80497    0.43976    0.34953   1.00
H2       0.80211    0.38031    0.37356   1.00
H2       0.84937    0.40594    0.38124   1.00
H2       0.93602    0.13882    0.39531   1.00
H2       0.97761    0.14452    0.42976   1.00
C5       0.92417    0.17602    0.44626   1.00
H2       1.20116    0.30450    0.05729   1.00
H2       1.16571    0.33437    0.02901   1.00
H2       1.21374    0.35540    0.04315   1.00
H2       1.01820    0.02640    0.20599   1.00
H2       1.02229    0.00757    0.15522   1.00
H2       1.06621    0.02698    0.18061   1.00
H2       0.78889    0.43687    0.32057   1.00
H2       0.78336    0.44794    0.37345   1.00
H2       0.82819    0.46343    0.34701   1.00
H2       0.89307    0.17558    0.43448   1.00
H2       0.92598    0.15699    0.47347   1.00
H2       0.93266    0.20723    0.45398   1.00
C5       0.85061    -0.13218   0.32715   1.00
H2       0.82645    -0.14745   0.34240   1.00
H2       0.86252    -0.11090   0.34850   1.00
C5       0.88216    -0.16194   0.31544   1.00
C5       0.90903    -0.17123   0.35022   1.00
H2       0.90008    -0.15015   0.29105   1.00
O3       0.80206    0.02000    0.20199   1.00
C4       0.74959    -0.02100   0.25008   1.00
C3c      0.77276    -0.04243   0.27621   1.00
H1       0.79102    -0.02725   0.29697   1.00
C3d      0.72558    -0.04135   0.22364   1.00
C3       0.77323    -0.08354   0.27567   1.00
O2       0.79287    -0.10248   0.30513   1.00
C3       0.72654    -0.08227   0.22252   1.00
H1       0.70867    -0.09657   0.20081   1.00
C2       0.75012    -0.10439   0.24845   1.00
C5       0.78991    0.02121    0.16264   1.00
H2       0.78824    0.05162    0.15121   1.00
H2       0.76068    0.00734    0.15896   1.00
C5       0.81982    -0.00129   0.13860   1.00
H2       0.82230    -0.03137   0.15071   1.00
H2       0.84881    0.01302    0.14219   1.00
C5       0.80802    -0.00262   0.09527   1.00
H2       0.80523    0.02732    0.08306   1.00
H2       0.77973    -0.01811   0.09151   1.00
C5       0.83927    -0.02445   0.07149   1.00
C5       0.66776    -0.01105   0.21064   1.00
C5       0.83150    -0.11070   0.29319   1.00
H2       0.67088    0.00912    0.23587   1.00
H2       0.65074    -0.03712   0.22016   1.00
H2       0.84744    -0.08300   0.28695   1.00
H2       0.83261    -0.12895   0.26614   1.00
H2       0.86886    -0.19030   0.30629   1.00
H2       0.61871    0.05753    0.21235   1.00
H2       0.59088    0.01237    0.21201   1.00
C2       0.75023    0.10395    0.24733   1.00
C3       0.72511    0.08403    0.27320   1.00
O2       0.69421    0.10326    0.29041   1.00
C3       0.77617    0.08174    0.22412   1.00
H1       0.79647    0.09615    0.20477   1.00
C3a      0.72570    0.04287    0.27456   1.00
H1       0.70475    0.02798    0.29287   1.00
C3b      0.77582    0.04078    0.22464   1.00
C4       0.75041    0.02100    0.24992   1.00
O3       0.70449    -0.02167   0.19537   1.00
C5       0.70331    0.11280    0.32941   1.00
H2       0.70986    0.08609    0.34690   1.00
C5       0.66769    0.13326    0.34648   1.00
H2       0.72897    0.13274    0.33084   1.00
H2       0.64581    0.11068    0.35470   1.00
H2       0.65429    0.15093    0.32271   1.00
C5       0.67762    0.15918    0.38180   1.00
H2       0.69371    0.14176    0.40391   1.00
C5       0.64023    0.17547    0.40063   1.00
H2       0.69562    0.18493    0.37298   1.00
C5       0.64537    0.00983    0.17836   1.00
H2       0.63641    -0.01215   0.15615   1.00
H2       0.66568    0.03048    0.16359   1.00
C5       0.60967    0.03200    0.19424   1.00
C5       0.58501    0.04775    0.16016   1.00
H2       0.89391    -0.19286   0.37045   1.00
C5       0.94738    -0.18912   0.33514   1.00
H2       0.91567    -0.14323   0.36689   1.00
C5       0.82333    -0.03337   0.03044   1.00
H2       0.86649    -0.00551   0.06893   1.00
H2       0.84698    -0.05293   0.08682   1.00
C5       0.65047    0.19503    0.43976   1.00
H2       0.62644    0.19789    0.38031   1.00
H2       0.61876    0.15063    0.40594   1.00
H2       0.60469    0.06398    0.13882   1.00
H2       0.57024    0.02239    0.14452   1.00
C5       0.55374    0.07583    0.17602   1.00
H2       0.94271    -0.20116   0.30450   1.00
H2       0.97099    -0.16571   0.33437   1.00
H2       0.95685    -0.21374   0.35540   1.00
H2       0.79401    -0.01820   0.02640   1.00
H2       0.84478    -0.02229   0.00757   1.00
H2       0.81939    -0.06621   0.02698   1.00
H2       0.67943    0.21111    0.43687   1.00
H2       0.62655    0.21664    0.44794   1.00
H2       0.65299    0.17181    0.46343   1.00
H2       0.56552    0.10693    0.17558   1.00
H2       0.52653    0.07402    0.15699   1.00
H2       0.54602    0.06734    0.20723   1.00
C5       0.82715    0.35061    -0.13218   1.00
H2       0.84240    0.32645    -0.14745   1.00
H2       0.84850    0.36252    -0.11090   1.00
C5       0.81544    0.38216    -0.16194   1.00
C5       0.85022    0.40903    -0.17123   1.00
H2       0.79105    0.40008    -0.15015   1.00
O3       0.70199    0.30206    0.02000   1.00
C4       0.75008    0.24959    -0.02100   1.00
C3c      0.77621    0.27276    -0.04243   1.00
H1       0.79697    0.29102    -0.02725   1.00
C3d      0.72364    0.22558    -0.04135   1.00
C3       0.77567    0.27323    -0.08354   1.00
O2       0.80513    0.29287    -0.10248   1.00
C3       0.72252    0.22654    -0.08227   1.00
H1       0.70081    0.20867    -0.09657   1.00
C2       0.74845    0.25012    -0.10439   1.00
C5       0.66264    0.28991    0.02121   1.00
H2       0.65121    0.28824    0.05162   1.00
H2       0.65896    0.26068    0.00734   1.00
C5       0.63860    0.31982    -0.00129   1.00
H2       0.65071    0.32230    -0.03137   1.00
H2       0.64219    0.34881    0.01302   1.00
C5       0.59527    0.30802    -0.00262   1.00
H2       0.58306    0.30523    0.02732   1.00
H2       0.59151    0.27973    -0.01811   1.00
C5       0.57149    0.33927    -0.02445   1.00
C5       0.71064    0.16776    -0.01105   1.00
C5       0.79319    0.33150    -0.11070   1.00
H2       0.73587    0.17088    0.00912   1.00
H2       0.72016    0.15074    -0.03712   1.00
H2       0.78695    0.34744    -0.08300   1.00
H2       0.76614    0.33261    -0.12895   1.00
H2       0.80629    0.36886    -0.19030   1.00
H2       0.71235    0.11871    0.05753   1.00
H2       0.71201    0.09088    0.01237   1.00
C2       0.74733    0.25023    0.10395   1.00
C3       0.77320    0.22511    0.08403   1.00
O2       0.79041    0.19421    0.10326   1.00
C3       0.72412    0.27617    0.08174   1.00
H1       0.70477    0.29647    0.09615   1.00
C3a      0.77456    0.22570    0.04287   1.00
H1       0.79287    0.20475    0.02798   1.00
C3b      0.72464    0.27582    0.04078   1.00
C4       0.74992    0.25041    0.02100   1.00
O3       0.69537    0.20449    -0.02167   1.00
C5       0.82941    0.20331    0.11280   1.00
H2       0.84690    0.20986    0.08609   1.00
C5       0.84648    0.16769    0.13326   1.00
H2       0.83084    0.22897    0.13274   1.00
H2       0.85470    0.14581    0.11068   1.00
H2       0.82271    0.15429    0.15093   1.00
C5       0.88180    0.17762    0.15918   1.00
H2       0.90391    0.19371    0.14176   1.00
C5       0.90063    0.14023    0.17547   1.00
H2       0.87298    0.19562    0.18493   1.00
C5       0.67836    0.14537    0.00983   1.00
H2       0.65615    0.13641    -0.01215   1.00
H2       0.66359    0.16568    0.03048   1.00
C5       0.69424    0.10967    0.03200   1.00
C5       0.66016    0.08501    0.04775   1.00
H2       0.87045    0.39391    -0.19286   1.00
C5       0.83514    0.44738    -0.18912   1.00
H2       0.86689    0.41567    -0.14323   1.00
C5       0.53044    0.32333    -0.03337   1.00
H2       0.56893    0.36649    -0.00551   1.00
H2       0.58682    0.34698    -0.05293   1.00
C5       0.93976    0.15047    0.19503   1.00
H2       0.88031    0.12644    0.19789   1.00
H2       0.90594    0.11876    0.15063   1.00
H2       0.63882    0.10469    0.06398   1.00
H2       0.64452    0.07024    0.02239   1.00
C5       0.67602    0.05374    0.07583   1.00
H2       0.80450    0.44271    -0.20116   1.00
H2       0.83437    0.47099    -0.16571   1.00
H2       0.85540    0.45685    -0.21374   1.00
H2       0.52640    0.29401    -0.01820   1.00
H2       0.50757    0.34478    -0.02229   1.00
H2       0.52698    0.31939    -0.06621   1.00
H2       0.93687    0.17943    0.21111   1.00
H2       0.94794    0.12655    0.21664   1.00
H2       0.96343    0.15299    0.17181   1.00
H2       0.67558    0.06552    0.10693   1.00
H2       0.65699    0.02653    0.07402   1.00
H2       0.70723    0.04602    0.06734   1.00
C5       0.99215    0.81439    1.29718   1.00
H2       1.00740    0.83855    1.31245   1.00
H2       1.01350    0.80248    1.27590   1.00
C5       0.98044    0.78284    1.32694   1.00
C5       1.01522    0.75597    1.33623   1.00
H2       0.95605    0.76492    1.31515   1.00
O3       0.86699    0.86294    1.14500   1.00
C4       0.91508    0.91541    1.18600   1.00
C3c      0.94121    0.89224    1.20743   1.00
H1       0.96197    0.87398    1.19225   1.00
C3d      0.88864    0.93942    1.20635   1.00
C3       0.94067    0.89177    1.24854   1.00
O2       0.97013    0.87213    1.26748   1.00
C3       0.88752    0.93846    1.24727   1.00
H1       0.86581    0.95633    1.26157   1.00
C2       0.91345    0.91488    1.26939   1.00
C5       0.82764    0.87509    1.14379   1.00
H2       0.81621    0.87676    1.11338   1.00
H2       0.82396    0.90432    1.15766   1.00
C5       0.80360    0.84518    1.16629   1.00
H2       0.81571    0.84270    1.19637   1.00
H2       0.80719    0.81619    1.15198   1.00
C5       0.76027    0.85698    1.16762   1.00
H2       0.74806    0.85977    1.13768   1.00
H2       0.75651    0.88527    1.18311   1.00
C5       0.73649    0.82573    1.18945   1.00
C5       0.87564    0.99724    1.17605   1.00
C5       0.95819    0.83350    1.27570   1.00
H2       0.90087    0.99412    1.15588   1.00
H2       0.88516    1.01426    1.20212   1.00
H2       0.95195    0.81756    1.24800   1.00
H2       0.93114    0.83239    1.29395   1.00
H2       0.97129    0.79614    1.35530   1.00
H2       0.87735    1.04629    1.10747   1.00
H2       0.87701    1.07412    1.15263   1.00
C2       0.91233    0.91477    1.06105   1.00
C3       0.93820    0.93989    1.08097   1.00
O2       0.95541    0.97079    1.06174   1.00
C3       0.88912    0.88883    1.08326   1.00
H1       0.86977    0.86853    1.06885   1.00
C3a      0.93956    0.93930    1.12213   1.00
H1       0.95787    0.96025    1.13702   1.00
C3b      0.88964    0.88918    1.12422   1.00
C4       0.91492    0.91459    1.14400   1.00
O3       0.86037    0.96051    1.18667   1.00
C5       0.99441    0.96169    1.05220   1.00
H2       1.01190    0.95514    1.07891   1.00
C5       1.01148    0.99731    1.03174   1.00
H2       0.99584    0.93603    1.03226   1.00
H2       1.01970    1.01919    1.05432   1.00
H2       0.98771    1.01071    1.01407   1.00
C5       1.04680    0.98738    1.00582   1.00
H2       1.06891    0.97129    1.02324   1.00
C5       1.06563    1.02477    0.98953   1.00
H2       1.03798    0.96938    0.98007   1.00
C5       0.84336    1.01963    1.15517   1.00
H2       0.82115    1.02859    1.17715   1.00
H2       0.82859    0.99932    1.13452   1.00
C5       0.85924    1.05533    1.13300   1.00
C5       0.82516    1.07999    1.11725   1.00
H2       1.03545    0.77109    1.35786   1.00
C5       1.00014    0.71762    1.35412   1.00
H2       1.03189    0.74933    1.30823   1.00
C5       0.69544    0.84167    1.19837   1.00
H2       0.73393    0.79851    1.17051   1.00
H2       0.75182    0.81802    1.21793   1.00
C5       1.10476    1.01453    0.96997   1.00
H2       1.04531    1.03856    0.96711   1.00
H2       1.07094    1.04624    1.01437   1.00
H2       0.80382    1.06031    1.10102   1.00
H2       0.80952    1.09476    1.14261   1.00
C5       0.84102    1.11126    1.08917   1.00
H2       0.96950    0.72229    1.36616   1.00
H2       0.99937    0.69401    1.33071   1.00
H2       1.02040    0.70815    1.37874   1.00
H2       0.69140    0.87099    1.18320   1.00
H2       0.67257    0.82022    1.18729   1.00
H2       0.69198    0.84561    1.23121   1.00
H2       1.10187    0.98557    0.95389   1.00
H2       1.11294    1.03845    0.94836   1.00
H2       1.12843    1.01201    0.99319   1.00
H2       0.84058    1.09948    1.05807   1.00
H2       0.82199    1.13847    1.09098   1.00
H2       0.87223    1.11898    1.09766   1.00
C5       0.81439    1.29718    0.99215   1.00
H2       0.83855    1.31245    1.00740   1.00
H2       0.80248    1.27590    1.01350   1.00
C5       0.78284    1.32694    0.98044   1.00
C5       0.75597    1.33623    1.01522   1.00
H2       0.76492    1.31515    0.95605   1.00
O3       0.86294    1.14500    0.86699   1.00
C4       0.91541    1.18600    0.91508   1.00
C3c      0.89224    1.20743    0.94121   1.00
H1       0.87398    1.19225    0.96197   1.00
C3d      0.93942    1.20635    0.88864   1.00
C3       0.89177    1.24854    0.94067   1.00
O2       0.87213    1.26748    0.97013   1.00
C3       0.93846    1.24727    0.88752   1.00
H1       0.95633    1.26157    0.86581   1.00
C2       0.91488    1.26939    0.91345   1.00
C5       0.87509    1.14379    0.82764   1.00
H2       0.87676    1.11338    0.81621   1.00
H2       0.90432    1.15766    0.82396   1.00
C5       0.84518    1.16629    0.80360   1.00
H2       0.84270    1.19637    0.81571   1.00
H2       0.81619    1.15198    0.80719   1.00
C5       0.85698    1.16762    0.76027   1.00
H2       0.85977    1.13768    0.74806   1.00
H2       0.88527    1.18311    0.75651   1.00
C5       0.82573    1.18945    0.73649   1.00
C5       0.99724    1.17605    0.87564   1.00
C5       0.83350    1.27570    0.95819   1.00
H2       0.99412    1.15588    0.90087   1.00
H2       1.01426    1.20212    0.88516   1.00
H2       0.81756    1.24800    0.95195   1.00
H2       0.83239    1.29395    0.93114   1.00
H2       0.79614    1.35530    0.97129   1.00
H2       1.04629    1.10747    0.87735   1.00
H2       1.07412    1.15263    0.87701   1.00
C2       0.91477    1.06105    0.91233   1.00
C3       0.93989    1.08097    0.93820   1.00
O2       0.97079    1.06174    0.95541   1.00
C3       0.88883    1.08326    0.88912   1.00
H1       0.86853    1.06885    0.86977   1.00
C3a      0.93930    1.12213    0.93956   1.00
H1       0.96025    1.13702    0.95787   1.00
C3b      0.88918    1.12422    0.88964   1.00
C4       0.91459    1.14400    0.91492   1.00
O3       0.96051    1.18667    0.86037   1.00
C5       0.96169    1.05220    0.99441   1.00
H2       0.95514    1.07891    1.01190   1.00
C5       0.99731    1.03174    1.01148   1.00
H2       0.93603    1.03226    0.99584   1.00
H2       1.01919    1.05432    1.01970   1.00
H2       1.01071    1.01407    0.98771   1.00
C5       0.98738    1.00582    1.04680   1.00
H2       0.97129    1.02324    1.06891   1.00
C5       1.02477    0.98953    1.06563   1.00
H2       0.96938    0.98007    1.03798   1.00
C5       1.01963    1.15517    0.84336   1.00
H2       1.02859    1.17715    0.82115   1.00
H2       0.99932    1.13452    0.82859   1.00
C5       1.05533    1.13300    0.85924   1.00
C5       1.07999    1.11725    0.82516   1.00
H2       0.77109    1.35786    1.03545   1.00
C5       0.71762    1.35412    1.00014   1.00
H2       0.74933    1.30823    1.03189   1.00
C5       0.84167    1.19837    0.69544   1.00
H2       0.79851    1.17051    0.73393   1.00
H2       0.81802    1.21793    0.75182   1.00
C5       1.01453    0.96997    1.10476   1.00
H2       1.03856    0.96711    1.04531   1.00
H2       1.04624    1.01437    1.07094   1.00
H2       1.06031    1.10102    0.80382   1.00
H2       1.09476    1.14261    0.80952   1.00
C5       1.11126    1.08917    0.84102   1.00
H2       0.72229    1.36616    0.96950   1.00
H2       0.69401    1.33071    0.99937   1.00
H2       0.70815    1.37874    1.02040   1.00
H2       0.87099    1.18320    0.69140   1.00
H2       0.82022    1.18729    0.67257   1.00
H2       0.84561    1.23121    0.69198   1.00
H2       0.98557    0.95389    1.10187   1.00
H2       1.03845    0.94836    1.11294   1.00
H2       1.01201    0.99319    1.12843   1.00
H2       1.09948    1.05807    0.84058   1.00
H2       1.13847    1.09098    0.82199   1.00
H2       1.11898    1.09766    0.87223   1.00
C5       0.53282    0.99215    1.01561   1.00
H2       0.51755    1.00740    0.99145   1.00
H2       0.55410    1.01350    1.02752   1.00
C5       0.50306    0.98044    1.04716   1.00
C5       0.49377    1.01522    1.07403   1.00
H2       0.51485    0.95605    1.06508   1.00
O3       0.68500    0.86699    0.96706   1.00
C4       0.64400    0.91508    0.91459   1.00
C3c      0.62257    0.94121    0.93776   1.00
H1       0.63775    0.96197    0.95602   1.00
C3d      0.62365    0.88864    0.89058   1.00
C3       0.58146    0.94067    0.93823   1.00
O2       0.56252    0.97013    0.95787   1.00
C3       0.58273    0.88752    0.89154   1.00
H1       0.56843    0.86581    0.87367   1.00
C2       0.56061    0.91345    0.91512   1.00
C5       0.68621    0.82764    0.95491   1.00
H2       0.71662    0.81621    0.95324   1.00
H2       0.67234    0.82396    0.92568   1.00
C5       0.66371    0.80360    0.98482   1.00
H2       0.63363    0.81571    0.98730   1.00
H2       0.67802    0.80719    1.01381   1.00
C5       0.66238    0.76027    0.97302   1.00
H2       0.69232    0.74806    0.97023   1.00
H2       0.64689    0.75651    0.94473   1.00
C5       0.64055    0.73649    1.00427   1.00
C5       0.65395    0.87564    0.83276   1.00
C5       0.55430    0.95819    0.99650   1.00
H2       0.67412    0.90087    0.83588   1.00
H2       0.62788    0.88516    0.81574   1.00
H2       0.58200    0.95195    1.01244   1.00
H2       0.53605    0.93114    0.99761   1.00
H2       0.47470    0.97129    1.03386   1.00
H2       0.72253    0.87735    0.78371   1.00
H2       0.67737    0.87701    0.75588   1.00
C2       0.76895    0.91233    0.91523   1.00
C3       0.74903    0.93820    0.89011   1.00
O2       0.76826    0.95541    0.85921   1.00
C3       0.74674    0.88912    0.94117   1.00
H1       0.76115    0.86977    0.96147   1.00
C3a      0.70787    0.93956    0.89070   1.00
H1       0.69298    0.95787    0.86975   1.00
C3b      0.70578    0.88964    0.94082   1.00
C4       0.68600    0.91492    0.91541   1.00
O3       0.64333    0.86037    0.86949   1.00
C5       0.77780    0.99441    0.86831   1.00
H2       0.75109    1.01190    0.87486   1.00
C5       0.79826    1.01148    0.83269   1.00
H2       0.79774    0.99584    0.89397   1.00
H2       0.77568    1.01970    0.81081   1.00
H2       0.81593    0.98771    0.81929   1.00
C5       0.82418    1.04680    0.84262   1.00
H2       0.80676    1.06891    0.85871   1.00
C5       0.84047    1.06563    0.80523   1.00
H2       0.84993    1.03798    0.86062   1.00
C5       0.67483    0.84336    0.81037   1.00
H2       0.65285    0.82115    0.80141   1.00
H2       0.69548    0.82859    0.83068   1.00
C5       0.69700    0.85924    0.77467   1.00
C5       0.71275    0.82516    0.75001   1.00
H2       0.47214    1.03545    1.05891   1.00
C5       0.47588    1.00014    1.11238   1.00
H2       0.52177    1.03189    1.08067   1.00
C5       0.63163    0.69544    0.98833   1.00
H2       0.65949    0.73393    1.03149   1.00
H2       0.61207    0.75182    1.01198   1.00
C5       0.86003    1.10476    0.81547   1.00
H2       0.86289    1.04531    0.79144   1.00
H2       0.81563    1.07094    0.78376   1.00
H2       0.72898    0.80382    0.76969   1.00
H2       0.68739    0.80952    0.73524   1.00
C5       0.74083    0.84102    0.71874   1.00
H2       0.46384    0.96950    1.10771   1.00
H2       0.49929    0.99937    1.13599   1.00
H2       0.45126    1.02040    1.12185   1.00
H2       0.64680    0.69140    0.95901   1.00
H2       0.64271    0.67257    1.00978   1.00
H2       0.59879    0.69198    0.98439   1.00
H2       0.87611    1.10187    0.84443   1.00
H2       0.88164    1.11294    0.79155   1.00
H2       0.83681    1.12843    0.81799   1.00
H2       0.77193    0.84058    0.73052   1.00
H2       0.73902    0.82199    0.69153   1.00
H2       0.73234    0.87223    0.71102   1.00
C5       1.29718    0.99215    0.81439   1.00
H2       1.31245    1.00740    0.83855   1.00
H2       1.27590    1.01350    0.80248   1.00
C5       1.32694    0.98044    0.78284   1.00
C5       1.33623    1.01522    0.75597   1.00
H2       1.31515    0.95605    0.76492   1.00
O3       1.14500    0.86699    0.86294   1.00
C4       1.18600    0.91508    0.91541   1.00
C3c      1.20743    0.94121    0.89224   1.00
H1       1.19225    0.96197    0.87398   1.00
C3d      1.20635    0.88864    0.93942   1.00
C3       1.24854    0.94067    0.89177   1.00
O2       1.26748    0.97013    0.87213   1.00
C3       1.24727    0.88752    0.93846   1.00
H1       1.26157    0.86581    0.95633   1.00
C2       1.26939    0.91345    0.91488   1.00
C5       1.14379    0.82764    0.87509   1.00
H2       1.11338    0.81621    0.87676   1.00
H2       1.15766    0.82396    0.90432   1.00
C5       1.16629    0.80360    0.84518   1.00
H2       1.19637    0.81571    0.84270   1.00
H2       1.15198    0.80719    0.81619   1.00
C5       1.16762    0.76027    0.85698   1.00
H2       1.13768    0.74806    0.85977   1.00
H2       1.18311    0.75651    0.88527   1.00
C5       1.18945    0.73649    0.82573   1.00
C5       1.17605    0.87564    0.99724   1.00
C5       1.27570    0.95819    0.83350   1.00
H2       1.15588    0.90087    0.99412   1.00
H2       1.20212    0.88516    1.01426   1.00
H2       1.24800    0.95195    0.81756   1.00
H2       1.29395    0.93114    0.83239   1.00
H2       1.35530    0.97129    0.79614   1.00
H2       1.10747    0.87735    1.04629   1.00
H2       1.15263    0.87701    1.07412   1.00
C2       1.06105    0.91233    0.91477   1.00
C3       1.08097    0.93820    0.93989   1.00
O2       1.06174    0.95541    0.97079   1.00
C3       1.08326    0.88912    0.88883   1.00
H1       1.06885    0.86977    0.86853   1.00
C3a      1.12213    0.93956    0.93930   1.00
H1       1.13702    0.95787    0.96025   1.00
C3b      1.12422    0.88964    0.88918   1.00
C4       1.14400    0.91492    0.91459   1.00
O3       1.18667    0.86037    0.96051   1.00
C5       1.05220    0.99441    0.96169   1.00
H2       1.07891    1.01190    0.95514   1.00
C5       1.03174    1.01148    0.99731   1.00
H2       1.03226    0.99584    0.93603   1.00
H2       1.05432    1.01970    1.01919   1.00
H2       1.01407    0.98771    1.01071   1.00
C5       1.00582    1.04680    0.98738   1.00
H2       1.02324    1.06891    0.97129   1.00
C5       0.98953    1.06563    1.02477   1.00
H2       0.98007    1.03798    0.96938   1.00
C5       1.15517    0.84336    1.01963   1.00
H2       1.17715    0.82115    1.02859   1.00
H2       1.13452    0.82859    0.99932   1.00
C5       1.13300    0.85924    1.05533   1.00
C5       1.11725    0.82516    1.07999   1.00
H2       1.35786    1.03545    0.77109   1.00
C5       1.35412    1.00014    0.71762   1.00
H2       1.30823    1.03189    0.74933   1.00
C5       1.19837    0.69544    0.84167   1.00
H2       1.17051    0.73393    0.79851   1.00
H2       1.21793    0.75182    0.81802   1.00
C5       0.96997    1.10476    1.01453   1.00
H2       0.96711    1.04531    1.03856   1.00
H2       1.01437    1.07094    1.04624   1.00
H2       1.10102    0.80382    1.06031   1.00
H2       1.14261    0.80952    1.09476   1.00
C5       1.08917    0.84102    1.11126   1.00
H2       1.36616    0.96950    0.72229   1.00
H2       1.33071    0.99937    0.69401   1.00
H2       1.37874    1.02040    0.70815   1.00
H2       1.18320    0.69140    0.87099   1.00
H2       1.18729    0.67257    0.82022   1.00
H2       1.23121    0.69198    0.84561   1.00
H2       0.95389    1.10187    0.98557   1.00
H2       0.94836    1.11294    1.03845   1.00
H2       0.99319    1.12843    1.01201   1.00
H2       1.05807    0.84058    1.09948   1.00
H2       1.09098    0.82199    1.13847   1.00
H2       1.09766    0.87223    1.11898   1.00
C5       1.01561    0.53282    0.99215   1.00
H2       0.99145    0.51755    1.00740   1.00
H2       1.02752    0.55410    1.01350   1.00
C5       1.04716    0.50306    0.98044   1.00
C5       1.07403    0.49377    1.01522   1.00
H2       1.06508    0.51485    0.95605   1.00
O3       0.96706    0.68500    0.86699   1.00
C4       0.91459    0.64400    0.91508   1.00
C3c      0.93776    0.62257    0.94121   1.00
H1       0.95602    0.63775    0.96197   1.00
C3d      0.89058    0.62365    0.88864   1.00
C3       0.93823    0.58146    0.94067   1.00
O2       0.95787    0.56252    0.97013   1.00
C3       0.89154    0.58273    0.88752   1.00
H1       0.87367    0.56843    0.86581   1.00
C2       0.91512    0.56061    0.91345   1.00
C5       0.95491    0.68621    0.82764   1.00
H2       0.95324    0.71662    0.81621   1.00
H2       0.92568    0.67234    0.82396   1.00
C5       0.98482    0.66371    0.80360   1.00
H2       0.98730    0.63363    0.81571   1.00
H2       1.01381    0.67802    0.80719   1.00
C5       0.97302    0.66238    0.76027   1.00
H2       0.97023    0.69232    0.74806   1.00
H2       0.94473    0.64689    0.75651   1.00
C5       1.00427    0.64055    0.73649   1.00
C5       0.83276    0.65395    0.87564   1.00
C5       0.99650    0.55430    0.95819   1.00
H2       0.83588    0.67412    0.90087   1.00
H2       0.81574    0.62788    0.88516   1.00
H2       1.01244    0.58200    0.95195   1.00
H2       0.99761    0.53605    0.93114   1.00
H2       1.03386    0.47470    0.97129   1.00
H2       0.78371    0.72253    0.87735   1.00
H2       0.75588    0.67737    0.87701   1.00
C2       0.91523    0.76895    0.91233   1.00
C3       0.89011    0.74903    0.93820   1.00
O2       0.85921    0.76826    0.95541   1.00
C3       0.94117    0.74674    0.88912   1.00
H1       0.96147    0.76115    0.86977   1.00
C3a      0.89070    0.70787    0.93956   1.00
H1       0.86975    0.69298    0.95787   1.00
C3b      0.94082    0.70578    0.88964   1.00
C4       0.91541    0.68600    0.91492   1.00
O3       0.86949    0.64333    0.86037   1.00
C5       0.86831    0.77780    0.99441   1.00
H2       0.87486    0.75109    1.01190   1.00
C5       0.83269    0.79826    1.01148   1.00
H2       0.89397    0.79774    0.99584   1.00
H2       0.81081    0.77568    1.01970   1.00
H2       0.81929    0.81593    0.98771   1.00
C5       0.84262    0.82418    1.04680   1.00
H2       0.85871    0.80676    1.06891   1.00
C5       0.80523    0.84047    1.06563   1.00
H2       0.86062    0.84993    1.03798   1.00
C5       0.81037    0.67483    0.84336   1.00
H2       0.80141    0.65285    0.82115   1.00
H2       0.83068    0.69548    0.82859   1.00
C5       0.77467    0.69700    0.85924   1.00
C5       0.75001    0.71275    0.82516   1.00
H2       1.05891    0.47214    1.03545   1.00
C5       1.11238    0.47588    1.00014   1.00
H2       1.08067    0.52177    1.03189   1.00
C5       0.98833    0.63163    0.69544   1.00
H2       1.03149    0.65949    0.73393   1.00
H2       1.01198    0.61207    0.75182   1.00
C5       0.81547    0.86003    1.10476   1.00
H2       0.79144    0.86289    1.04531   1.00
H2       0.78376    0.81563    1.07094   1.00
H2       0.76969    0.72898    0.80382   1.00
H2       0.73524    0.68739    0.80952   1.00
C5       0.71874    0.74083    0.84102   1.00
H2       1.10771    0.46384    0.96950   1.00
H2       1.13599    0.49929    0.99937   1.00
H2       1.12185    0.45126    1.02040   1.00
H2       0.95901    0.64680    0.69140   1.00
H2       1.00978    0.64271    0.67257   1.00
H2       0.98439    0.59879    0.69198   1.00
H2       0.84443    0.87611    1.10187   1.00
H2       0.79155    0.88164    1.11294   1.00
H2       0.81799    0.83681    1.12843   1.00
H2       0.73052    0.77193    0.84058   1.00
H2       0.69153    0.73902    0.82199   1.00
H2       0.71102    0.73234    0.87223   1.00
C5       0.99215    1.01561    0.53282   1.00
H2       1.00740    0.99145    0.51755   1.00
H2       1.01350    1.02752    0.55410   1.00
C5       0.98044    1.04716    0.50306   1.00
C5       1.01522    1.07403    0.49377   1.00
H2       0.95605    1.06508    0.51485   1.00
O3       0.86699    0.96706    0.68500   1.00
C4       0.91508    0.91459    0.64400   1.00
C3c      0.94121    0.93776    0.62257   1.00
H1       0.96197    0.95602    0.63775   1.00
C3d      0.88864    0.89058    0.62365   1.00
C3       0.94067    0.93823    0.58146   1.00
O2       0.97013    0.95787    0.56252   1.00
C3       0.88752    0.89154    0.58273   1.00
H1       0.86581    0.87367    0.56843   1.00
C2       0.91345    0.91512    0.56061   1.00
C5       0.82764    0.95491    0.68621   1.00
H2       0.81621    0.95324    0.71662   1.00
H2       0.82396    0.92568    0.67234   1.00
C5       0.80360    0.98482    0.66371   1.00
H2       0.81571    0.98730    0.63363   1.00
H2       0.80719    1.01381    0.67802   1.00
C5       0.76027    0.97302    0.66238   1.00
H2       0.74806    0.97023    0.69232   1.00
H2       0.75651    0.94473    0.64689   1.00
C5       0.73649    1.00427    0.64055   1.00
C5       0.87564    0.83276    0.65395   1.00
C5       0.95819    0.99650    0.55430   1.00
H2       0.90087    0.83588    0.67412   1.00
H2       0.88516    0.81574    0.62788   1.00
H2       0.95195    1.01244    0.58200   1.00
H2       0.93114    0.99761    0.53605   1.00
H2       0.97129    1.03386    0.47470   1.00
H2       0.87735    0.78371    0.72253   1.00
H2       0.87701    0.75588    0.67737   1.00
C2       0.91233    0.91523    0.76895   1.00
C3       0.93820    0.89011    0.74903   1.00
O2       0.95541    0.85921    0.76826   1.00
C3       0.88912    0.94117    0.74674   1.00
H1       0.86977    0.96147    0.76115   1.00
C3a      0.93956    0.89070    0.70787   1.00
H1       0.95787    0.86975    0.69298   1.00
C3b      0.88964    0.94082    0.70578   1.00
C4       0.91492    0.91541    0.68600   1.00
O3       0.86037    0.86949    0.64333   1.00
C5       0.99441    0.86831    0.77780   1.00
H2       1.01190    0.87486    0.75109   1.00
C5       1.01148    0.83269    0.79826   1.00
H2       0.99584    0.89397    0.79774   1.00
H2       1.01970    0.81081    0.77568   1.00
H2       0.98771    0.81929    0.81593   1.00
C5       1.04680    0.84262    0.82418   1.00
H2       1.06891    0.85871    0.80676   1.00
C5       1.06563    0.80523    0.84047   1.00
H2       1.03798    0.86062    0.84993   1.00
C5       0.84336    0.81037    0.67483   1.00
H2       0.82115    0.80141    0.65285   1.00
H2       0.82859    0.83068    0.69548   1.00
C5       0.85924    0.77467    0.69700   1.00
C5       0.82516    0.75001    0.71275   1.00
H2       1.03545    1.05891    0.47214   1.00
C5       1.00014    1.11238    0.47588   1.00
H2       1.03189    1.08067    0.52177   1.00
C5       0.69544    0.98833    0.63163   1.00
H2       0.73393    1.03149    0.65949   1.00
H2       0.75182    1.01198    0.61207   1.00
C5       1.10476    0.81547    0.86003   1.00
H2       1.04531    0.79144    0.86289   1.00
H2       1.07094    0.78376    0.81563   1.00
H2       0.80382    0.76969    0.72898   1.00
H2       0.80952    0.73524    0.68739   1.00
C5       0.84102    0.71874    0.74083   1.00
H2       0.96950    1.10771    0.46384   1.00
H2       0.99937    1.13599    0.49929   1.00
H2       1.02040    1.12185    0.45126   1.00
H2       0.69140    0.95901    0.64680   1.00
H2       0.67257    1.00978    0.64271   1.00
H2       0.69198    0.98439    0.59879   1.00
H2       1.10187    0.84443    0.87611   1.00
H2       1.11294    0.79155    0.88164   1.00
H2       1.12843    0.81799    0.83681   1.00
H2       0.84058    0.73052    0.77193   1.00
H2       0.82199    0.69153    0.73902   1.00
H2       0.87223    0.71102    0.73234   1.00
C5       0.49215    0.31439    1.29718   1.00
H2       0.50740    0.33855    1.31245   1.00
H2       0.51350    0.30248    1.27590   1.00
C5       0.48044    0.28284    1.32694   1.00
C5       0.51522    0.25597    1.33623   1.00
H2       0.45605    0.26492    1.31515   1.00
O3       0.36699    0.36294    1.14500   1.00
C4       0.41508    0.41541    1.18600   1.00
C3c      0.44121    0.39224    1.20743   1.00
H1       0.46197    0.37398    1.19225   1.00
C3d      0.38864    0.43942    1.20635   1.00
C3       0.44067    0.39177    1.24854   1.00
O2       0.47013    0.37213    1.26748   1.00
C3       0.38752    0.43846    1.24727   1.00
H1       0.36581    0.45633    1.26157   1.00
C2       0.41345    0.41488    1.26939   1.00
C5       0.32764    0.37509    1.14379   1.00
H2       0.31621    0.37676    1.11338   1.00
H2       0.32396    0.40432    1.15766   1.00
C5       0.30360    0.34518    1.16629   1.00
H2       0.31571    0.34270    1.19637   1.00
H2       0.30719    0.31619    1.15198   1.00
C5       0.26027    0.35698    1.16762   1.00
H2       0.24806    0.35977    1.13768   1.00
H2       0.25651    0.38527    1.18311   1.00
C5       0.23649    0.32573    1.18945   1.00
C5       0.37564    0.49724    1.17605   1.00
C5       0.45819    0.33350    1.27570   1.00
H2       0.40087    0.49412    1.15588   1.00
H2       0.38516    0.51426    1.20212   1.00
H2       0.45195    0.31756    1.24800   1.00
H2       0.43114    0.33239    1.29395   1.00
H2       0.47129    0.29614    1.35530   1.00
H2       0.37735    0.54629    1.10747   1.00
H2       0.37701    0.57412    1.15263   1.00
C2       0.41233    0.41477    1.06105   1.00
C3       0.43820    0.43989    1.08097   1.00
O2       0.45541    0.47079    1.06174   1.00
C3       0.38912    0.38883    1.08326   1.00
H1       0.36977    0.36853    1.06885   1.00
C3a      0.43956    0.43930    1.12213   1.00
H1       0.45787    0.46025    1.13702   1.00
C3b      0.38964    0.38918    1.12422   1.00
C4       0.41492    0.41459    1.14400   1.00
O3       0.36037    0.46051    1.18667   1.00
C5       0.49441    0.46169    1.05220   1.00
H2       0.51190    0.45514    1.07891   1.00
C5       0.51148    0.49731    1.03174   1.00
H2       0.49584    0.43603    1.03226   1.00
H2       0.51970    0.51919    1.05432   1.00
H2       0.48771    0.51071    1.01407   1.00
C5       0.54680    0.48738    1.00582   1.00
H2       0.56891    0.47129    1.02324   1.00
C5       0.56563    0.52477    0.98953   1.00
H2       0.53798    0.46938    0.98007   1.00
C5       0.34336    0.51963    1.15517   1.00
H2       0.32115    0.52859    1.17715   1.00
H2       0.32859    0.49932    1.13452   1.00
C5       0.35924    0.55533    1.13300   1.00
C5       0.32516    0.57999    1.11725   1.00
H2       0.53545    0.27109    1.35786   1.00
C5       0.50014    0.21762    1.35412   1.00
H2       0.53189    0.24933    1.30823   1.00
C5       0.19544    0.34167    1.19837   1.00
H2       0.23393    0.29851    1.17051   1.00
H2       0.25182    0.31802    1.21793   1.00
C5       0.60476    0.51453    0.96997   1.00
H2       0.54531    0.53856    0.96711   1.00
H2       0.57094    0.54624    1.01437   1.00
H2       0.30382    0.56031    1.10102   1.00
H2       0.30952    0.59476    1.14261   1.00
C5       0.34102    0.61126    1.08917   1.00
H2       0.46950    0.22229    1.36616   1.00
H2       0.49937    0.19401    1.33071   1.00
H2       0.52040    0.20815    1.37874   1.00
H2       0.19140    0.37099    1.18320   1.00
H2       0.17257    0.32022    1.18729   1.00
H2       0.19198    0.34561    1.23121   1.00
H2       0.60187    0.48557    0.95389   1.00
H2       0.61294    0.53845    0.94836   1.00
H2       0.62843    0.51201    0.99319   1.00
H2       0.34058    0.59948    1.05807   1.00
H2       0.32199    0.63847    1.09098   1.00
H2       0.37223    0.61898    1.09766   1.00
C5       0.31439    0.79718    0.99215   1.00
H2       0.33855    0.81245    1.00740   1.00
H2       0.30248    0.77590    1.01350   1.00
C5       0.28284    0.82694    0.98044   1.00
C5       0.25597    0.83623    1.01522   1.00
H2       0.26492    0.81515    0.95605   1.00
O3       0.36294    0.64500    0.86699   1.00
C4       0.41541    0.68600    0.91508   1.00
C3c      0.39224    0.70743    0.94121   1.00
H1       0.37398    0.69225    0.96197   1.00
C3d      0.43942    0.70635    0.88864   1.00
C3       0.39177    0.74854    0.94067   1.00
O2       0.37213    0.76748    0.97013   1.00
C3       0.43846    0.74727    0.88752   1.00
H1       0.45633    0.76157    0.86581   1.00
C2       0.41488    0.76939    0.91345   1.00
C5       0.37509    0.64379    0.82764   1.00
H2       0.37676    0.61338    0.81621   1.00
H2       0.40432    0.65766    0.82396   1.00
C5       0.34518    0.66629    0.80360   1.00
H2       0.34270    0.69637    0.81571   1.00
H2       0.31619    0.65198    0.80719   1.00
C5       0.35698    0.66762    0.76027   1.00
H2       0.35977    0.63768    0.74806   1.00
H2       0.38527    0.68311    0.75651   1.00
C5       0.32573    0.68945    0.73649   1.00
C5       0.49724    0.67605    0.87564   1.00
C5       0.33350    0.77570    0.95819   1.00
H2       0.49412    0.65588    0.90087   1.00
H2       0.51426    0.70212    0.88516   1.00
H2       0.31756    0.74800    0.95195   1.00
H2       0.33239    0.79395    0.93114   1.00
H2       0.29614    0.85530    0.97129   1.00
H2       0.54629    0.60747    0.87735   1.00
H2       0.57412    0.65263    0.87701   1.00
C2       0.41477    0.56105    0.91233   1.00
C3       0.43989    0.58097    0.93820   1.00
O2       0.47079    0.56174    0.95541   1.00
C3       0.38883    0.58326    0.88912   1.00
H1       0.36853    0.56885    0.86977   1.00
C3a      0.43930    0.62213    0.93956   1.00
H1       0.46025    0.63702    0.95787   1.00
C3b      0.38918    0.62422    0.88964   1.00
C4       0.41459    0.64400    0.91492   1.00
O3       0.46051    0.68667    0.86037   1.00
C5       0.46169    0.55220    0.99441   1.00
H2       0.45514    0.57891    1.01190   1.00
C5       0.49731    0.53174    1.01148   1.00
H2       0.43603    0.53226    0.99584   1.00
H2       0.51919    0.55432    1.01970   1.00
H2       0.51071    0.51407    0.98771   1.00
C5       0.48738    0.50582    1.04680   1.00
H2       0.47129    0.52324    1.06891   1.00
C5       0.52477    0.48953    1.06563   1.00
H2       0.46938    0.48007    1.03798   1.00
C5       0.51963    0.65517    0.84336   1.00
H2       0.52859    0.67715    0.82115   1.00
H2       0.49932    0.63452    0.82859   1.00
C5       0.55533    0.63300    0.85924   1.00
C5       0.57999    0.61725    0.82516   1.00
H2       0.27109    0.85786    1.03545   1.00
C5       0.21762    0.85412    1.00014   1.00
H2       0.24933    0.80823    1.03189   1.00
C5       0.34167    0.69837    0.69544   1.00
H2       0.29851    0.67051    0.73393   1.00
H2       0.31802    0.71793    0.75182   1.00
C5       0.51453    0.46997    1.10476   1.00
H2       0.53856    0.46711    1.04531   1.00
H2       0.54624    0.51437    1.07094   1.00
H2       0.56031    0.60102    0.80382   1.00
H2       0.59476    0.64261    0.80952   1.00
C5       0.61126    0.58917    0.84102   1.00
H2       0.22229    0.86616    0.96950   1.00
H2       0.19401    0.83071    0.99937   1.00
H2       0.20815    0.87874    1.02040   1.00
H2       0.37099    0.68320    0.69140   1.00
H2       0.32022    0.68729    0.67257   1.00
H2       0.34561    0.73121    0.69198   1.00
H2       0.48557    0.45389    1.10187   1.00
H2       0.53845    0.44836    1.11294   1.00
H2       0.51201    0.49319    1.12843   1.00
H2       0.59948    0.55807    0.84058   1.00
H2       0.63847    0.59098    0.82199   1.00
H2       0.61898    0.59766    0.87223   1.00
C5       0.03282    0.49215    1.01561   1.00
H2       0.01755    0.50740    0.99145   1.00
H2       0.05410    0.51350    1.02752   1.00
C5       0.00306    0.48044    1.04716   1.00
C5       -0.00623   0.51522    1.07403   1.00
H2       0.01485    0.45605    1.06508   1.00
O3       0.18500    0.36699    0.96706   1.00
C4       0.14400    0.41508    0.91459   1.00
C3c      0.12257    0.44121    0.93776   1.00
H1       0.13775    0.46197    0.95602   1.00
C3d      0.12365    0.38864    0.89058   1.00
C3       0.08146    0.44067    0.93823   1.00
O2       0.06252    0.47013    0.95787   1.00
C3       0.08273    0.38752    0.89154   1.00
H1       0.06843    0.36581    0.87367   1.00
C2       0.06061    0.41345    0.91512   1.00
C5       0.18621    0.32764    0.95491   1.00
H2       0.21662    0.31621    0.95324   1.00
H2       0.17234    0.32396    0.92568   1.00
C5       0.16371    0.30360    0.98482   1.00
H2       0.13363    0.31571    0.98730   1.00
H2       0.17802    0.30719    1.01381   1.00
C5       0.16238    0.26027    0.97302   1.00
H2       0.19232    0.24806    0.97023   1.00
H2       0.14689    0.25651    0.94473   1.00
C5       0.14055    0.23649    1.00427   1.00
C5       0.15395    0.37564    0.83276   1.00
C5       0.05430    0.45819    0.99650   1.00
H2       0.17412    0.40087    0.83588   1.00
H2       0.12788    0.38516    0.81574   1.00
H2       0.08200    0.45195    1.01244   1.00
H2       0.03605    0.43114    0.99761   1.00
H2       -0.02530   0.47129    1.03386   1.00
H2       0.22253    0.37735    0.78371   1.00
H2       0.17737    0.37701    0.75588   1.00
C2       0.26895    0.41233    0.91523   1.00
C3       0.24903    0.43820    0.89011   1.00
O2       0.26826    0.45541    0.85921   1.00
C3       0.24674    0.38912    0.94117   1.00
H1       0.26115    0.36977    0.96147   1.00
C3a      0.20787    0.43956    0.89070   1.00
H1       0.19298    0.45787    0.86975   1.00
C3b      0.20578    0.38964    0.94082   1.00
C4       0.18600    0.41492    0.91541   1.00
O3       0.14333    0.36037    0.86949   1.00
C5       0.27780    0.49441    0.86831   1.00
H2       0.25109    0.51190    0.87486   1.00
C5       0.29826    0.51148    0.83269   1.00
H2       0.29774    0.49584    0.89397   1.00
H2       0.27568    0.51970    0.81081   1.00
H2       0.31593    0.48771    0.81929   1.00
C5       0.32418    0.54680    0.84262   1.00
H2       0.30676    0.56891    0.85871   1.00
C5       0.34047    0.56563    0.80523   1.00
H2       0.34993    0.53798    0.86062   1.00
C5       0.17483    0.34336    0.81037   1.00
H2       0.15285    0.32115    0.80141   1.00
H2       0.19548    0.32859    0.83068   1.00
C5       0.19700    0.35924    0.77467   1.00
C5       0.21275    0.32516    0.75001   1.00
H2       -0.02786   0.53545    1.05891   1.00
C5       -0.02412   0.50014    1.11238   1.00
H2       0.02177    0.53189    1.08067   1.00
C5       0.13163    0.19544    0.98833   1.00
H2       0.15949    0.23393    1.03149   1.00
H2       0.11207    0.25182    1.01198   1.00
C5       0.36003    0.60476    0.81547   1.00
H2       0.36289    0.54531    0.79144   1.00
H2       0.31563    0.57094    0.78376   1.00
H2       0.22898    0.30382    0.76969   1.00
H2       0.18739    0.30952    0.73524   1.00
C5       0.24083    0.34102    0.71874   1.00
H2       -0.03616   0.46950    1.10771   1.00
H2       -0.00071   0.49937    1.13599   1.00
H2       -0.04874   0.52040    1.12185   1.00
H2       0.14680    0.19140    0.95901   1.00
H2       0.14271    0.17257    1.00978   1.00
H2       0.09879    0.19198    0.98439   1.00
H2       0.37611    0.60187    0.84443   1.00
H2       0.38164    0.61294    0.79155   1.00
H2       0.33681    0.62843    0.81799   1.00
H2       0.27193    0.34058    0.73052   1.00
H2       0.23902    0.32199    0.69153   1.00
H2       0.23234    0.37223    0.71102   1.00
C5       0.79718    0.49215    0.81439   1.00
H2       0.81245    0.50740    0.83855   1.00
H2       0.77590    0.51350    0.80248   1.00
C5       0.82694    0.48044    0.78284   1.00
C5       0.83623    0.51522    0.75597   1.00
H2       0.81515    0.45605    0.76492   1.00
O3       0.64500    0.36699    0.86294   1.00
C4       0.68600    0.41508    0.91541   1.00
C3c      0.70743    0.44121    0.89224   1.00
H1       0.69225    0.46197    0.87398   1.00
C3d      0.70635    0.38864    0.93942   1.00
C3       0.74854    0.44067    0.89177   1.00
O2       0.76748    0.47013    0.87213   1.00
C3       0.74727    0.38752    0.93846   1.00
H1       0.76157    0.36581    0.95633   1.00
C2       0.76939    0.41345    0.91488   1.00
C5       0.64379    0.32764    0.87509   1.00
H2       0.61338    0.31621    0.87676   1.00
H2       0.65766    0.32396    0.90432   1.00
C5       0.66629    0.30360    0.84518   1.00
H2       0.69637    0.31571    0.84270   1.00
H2       0.65198    0.30719    0.81619   1.00
C5       0.66762    0.26027    0.85698   1.00
H2       0.63768    0.24806    0.85977   1.00
H2       0.68311    0.25651    0.88527   1.00
C5       0.68945    0.23649    0.82573   1.00
C5       0.67605    0.37564    0.99724   1.00
C5       0.77570    0.45819    0.83350   1.00
H2       0.65588    0.40087    0.99412   1.00
H2       0.70212    0.38516    1.01426   1.00
H2       0.74800    0.45195    0.81756   1.00
H2       0.79395    0.43114    0.83239   1.00
H2       0.85530    0.47129    0.79614   1.00
H2       0.60747    0.37735    1.04629   1.00
H2       0.65263    0.37701    1.07412   1.00
C2       0.56105    0.41233    0.91477   1.00
C3       0.58097    0.43820    0.93989   1.00
O2       0.56174    0.45541    0.97079   1.00
C3       0.58326    0.38912    0.88883   1.00
H1       0.56885    0.36977    0.86853   1.00
C3a      0.62213    0.43956    0.93930   1.00
H1       0.63702    0.45787    0.96025   1.00
C3b      0.62422    0.38964    0.88918   1.00
C4       0.64400    0.41492    0.91459   1.00
O3       0.68667    0.36037    0.96051   1.00
C5       0.55220    0.49441    0.96169   1.00
H2       0.57891    0.51190    0.95514   1.00
C5       0.53174    0.51148    0.99731   1.00
H2       0.53226    0.49584    0.93603   1.00
H2       0.55432    0.51970    1.01919   1.00
H2       0.51407    0.48771    1.01071   1.00
C5       0.50582    0.54680    0.98738   1.00
H2       0.52324    0.56891    0.97129   1.00
C5       0.48953    0.56563    1.02477   1.00
H2       0.48007    0.53798    0.96938   1.00
C5       0.65517    0.34336    1.01963   1.00
H2       0.67715    0.32115    1.02859   1.00
H2       0.63452    0.32859    0.99932   1.00
C5       0.63300    0.35924    1.05533   1.00
C5       0.61725    0.32516    1.07999   1.00
H2       0.85786    0.53545    0.77109   1.00
C5       0.85412    0.50014    0.71762   1.00
H2       0.80823    0.53189    0.74933   1.00
C5       0.69837    0.19544    0.84167   1.00
H2       0.67051    0.23393    0.79851   1.00
H2       0.71793    0.25182    0.81802   1.00
C5       0.46997    0.60476    1.01453   1.00
H2       0.46711    0.54531    1.03856   1.00
H2       0.51437    0.57094    1.04624   1.00
H2       0.60102    0.30382    1.06031   1.00
H2       0.64261    0.30952    1.09476   1.00
C5       0.58917    0.34102    1.11126   1.00
H2       0.86616    0.46950    0.72229   1.00
H2       0.83071    0.49937    0.69401   1.00
H2       0.87874    0.52040    0.70815   1.00
H2       0.68320    0.19140    0.87099   1.00
H2       0.68729    0.17257    0.82022   1.00
H2       0.73121    0.19198    0.84561   1.00
H2       0.45389    0.60187    0.98557   1.00
H2       0.44836    0.61294    1.03845   1.00
H2       0.49319    0.62843    1.01201   1.00
H2       0.55807    0.34058    1.09948   1.00
H2       0.59098    0.32199    1.13847   1.00
H2       0.59766    0.37223    1.11898   1.00
C5       0.51561    0.03282    0.99215   1.00
H2       0.49145    0.01755    1.00740   1.00
H2       0.52752    0.05410    1.01350   1.00
C5       0.54716    0.00306    0.98044   1.00
C5       0.57403    -0.00623   1.01522   1.00
H2       0.56508    0.01485    0.95605   1.00
O3       0.46706    0.18500    0.86699   1.00
C4       0.41459    0.14400    0.91508   1.00
C3c      0.43776    0.12257    0.94121   1.00
H1       0.45602    0.13775    0.96197   1.00
C3d      0.39058    0.12365    0.88864   1.00
C3       0.43823    0.08146    0.94067   1.00
O2       0.45787    0.06252    0.97013   1.00
C3       0.39154    0.08273    0.88752   1.00
H1       0.37367    0.06843    0.86581   1.00
C2       0.41512    0.06061    0.91345   1.00
C5       0.45491    0.18621    0.82764   1.00
H2       0.45324    0.21662    0.81621   1.00
H2       0.42568    0.17234    0.82396   1.00
C5       0.48482    0.16371    0.80360   1.00
H2       0.48730    0.13363    0.81571   1.00
H2       0.51381    0.17802    0.80719   1.00
C5       0.47302    0.16238    0.76027   1.00
H2       0.47023    0.19232    0.74806   1.00
H2       0.44473    0.14689    0.75651   1.00
C5       0.50427    0.14055    0.73649   1.00
C5       0.33276    0.15395    0.87564   1.00
C5       0.49650    0.05430    0.95819   1.00
H2       0.33588    0.17412    0.90087   1.00
H2       0.31574    0.12788    0.88516   1.00
H2       0.51244    0.08200    0.95195   1.00
H2       0.49761    0.03605    0.93114   1.00
H2       0.53386    -0.02530   0.97129   1.00
H2       0.28371    0.22253    0.87735   1.00
H2       0.25588    0.17737    0.87701   1.00
C2       0.41523    0.26895    0.91233   1.00
C3       0.39011    0.24903    0.93820   1.00
O2       0.35921    0.26826    0.95541   1.00
C3       0.44117    0.24674    0.88912   1.00
H1       0.46147    0.26115    0.86977   1.00
C3a      0.39070    0.20787    0.93956   1.00
H1       0.36975    0.19298    0.95787   1.00
C3b      0.44082    0.20578    0.88964   1.00
C4       0.41541    0.18600    0.91492   1.00
O3       0.36949    0.14333    0.86037   1.00
C5       0.36831    0.27780    0.99441   1.00
H2       0.37486    0.25109    1.01190   1.00
C5       0.33269    0.29826    1.01148   1.00
H2       0.39397    0.29774    0.99584   1.00
H2       0.31081    0.27568    1.01970   1.00
H2       0.31929    0.31593    0.98771   1.00
C5       0.34262    0.32418    1.04680   1.00
H2       0.35871    0.30676    1.06891   1.00
C5       0.30523    0.34047    1.06563   1.00
H2       0.36062    0.34993    1.03798   1.00
C5       0.31037    0.17483    0.84336   1.00
H2       0.30141    0.15285    0.82115   1.00
H2       0.33068    0.19548    0.82859   1.00
C5       0.27467    0.19700    0.85924   1.00
C5       0.25001    0.21275    0.82516   1.00
H2       0.55891    -0.02786   1.03545   1.00
C5       0.61238    -0.02412   1.00014   1.00
H2       0.58067    0.02177    1.03189   1.00
C5       0.48833    0.13163    0.69544   1.00
H2       0.53149    0.15949    0.73393   1.00
H2       0.51198    0.11207    0.75182   1.00
C5       0.31547    0.36003    1.10476   1.00
H2       0.29144    0.36289    1.04531   1.00
H2       0.28376    0.31563    1.07094   1.00
H2       0.26969    0.22898    0.80382   1.00
H2       0.23524    0.18739    0.80952   1.00
C5       0.21874    0.24083    0.84102   1.00
H2       0.60771    -0.03616   0.96950   1.00
H2       0.63599    -0.00071   0.99937   1.00
H2       0.62185    -0.04874   1.02040   1.00
H2       0.45901    0.14680    0.69140   1.00
H2       0.50978    0.14271    0.67257   1.00
H2       0.48439    0.09879    0.69198   1.00
H2       0.34443    0.37611    1.10187   1.00
H2       0.29155    0.38164    1.11294   1.00
H2       0.31799    0.33681    1.12843   1.00
H2       0.23052    0.27193    0.84058   1.00
H2       0.19153    0.23902    0.82199   1.00
H2       0.21102    0.23234    0.87223   1.00
C5       0.49215    0.51561    0.53282   1.00
H2       0.50740    0.49145    0.51755   1.00
H2       0.51350    0.52752    0.55410   1.00
C5       0.48044    0.54716    0.50306   1.00
C5       0.51522    0.57403    0.49377   1.00
H2       0.45605    0.56508    0.51485   1.00
O3       0.36699    0.46706    0.68500   1.00
C4       0.41508    0.41459    0.64400   1.00
C3c      0.44121    0.43776    0.62257   1.00
H1       0.46197    0.45602    0.63775   1.00
C3d      0.38864    0.39058    0.62365   1.00
C3       0.44067    0.43823    0.58146   1.00
O2       0.47013    0.45787    0.56252   1.00
C3       0.38752    0.39154    0.58273   1.00
H1       0.36581    0.37367    0.56843   1.00
C2       0.41345    0.41512    0.56061   1.00
C5       0.32764    0.45491    0.68621   1.00
H2       0.31621    0.45324    0.71662   1.00
H2       0.32396    0.42568    0.67234   1.00
C5       0.30360    0.48482    0.66371   1.00
H2       0.31571    0.48730    0.63363   1.00
H2       0.30719    0.51381    0.67802   1.00
C5       0.26027    0.47302    0.66238   1.00
H2       0.24806    0.47023    0.69232   1.00
H2       0.25651    0.44473    0.64689   1.00
C5       0.23649    0.50427    0.64055   1.00
C5       0.37564    0.33276    0.65395   1.00
C5       0.45819    0.49650    0.55430   1.00
H2       0.40087    0.33588    0.67412   1.00
H2       0.38516    0.31574    0.62788   1.00
H2       0.45195    0.51244    0.58200   1.00
H2       0.43114    0.49761    0.53605   1.00
H2       0.47129    0.53386    0.47470   1.00
H2       0.37735    0.28371    0.72253   1.00
H2       0.37701    0.25588    0.67737   1.00
C2       0.41233    0.41523    0.76895   1.00
C3       0.43820    0.39011    0.74903   1.00
O2       0.45541    0.35921    0.76826   1.00
C3       0.38912    0.44117    0.74674   1.00
H1       0.36977    0.46147    0.76115   1.00
C3a      0.43956    0.39070    0.70787   1.00
H1       0.45787    0.36975    0.69298   1.00
C3b      0.38964    0.44082    0.70578   1.00
C4       0.41492    0.41541    0.68600   1.00
O3       0.36037    0.36949    0.64333   1.00
C5       0.49441    0.36831    0.77780   1.00
H2       0.51190    0.37486    0.75109   1.00
C5       0.51148    0.33269    0.79826   1.00
H2       0.49584    0.39397    0.79774   1.00
H2       0.51970    0.31081    0.77568   1.00
H2       0.48771    0.31929    0.81593   1.00
C5       0.54680    0.34262    0.82418   1.00
H2       0.56891    0.35871    0.80676   1.00
C5       0.56563    0.30523    0.84047   1.00
H2       0.53798    0.36062    0.84993   1.00
C5       0.34336    0.31037    0.67483   1.00
H2       0.32115    0.30141    0.65285   1.00
H2       0.32859    0.33068    0.69548   1.00
C5       0.35924    0.27467    0.69700   1.00
C5       0.32516    0.25001    0.71275   1.00
H2       0.53545    0.55891    0.47214   1.00
C5       0.50014    0.61238    0.47588   1.00
H2       0.53189    0.58067    0.52177   1.00
C5       0.19544    0.48833    0.63163   1.00
H2       0.23393    0.53149    0.65949   1.00
H2       0.25182    0.51198    0.61207   1.00
C5       0.60476    0.31547    0.86003   1.00
H2       0.54531    0.29144    0.86289   1.00
H2       0.57094    0.28376    0.81563   1.00
H2       0.30382    0.26969    0.72898   1.00
H2       0.30952    0.23524    0.68739   1.00
C5       0.34102    0.21874    0.74083   1.00
H2       0.46950    0.60771    0.46384   1.00
H2       0.49937    0.63599    0.49929   1.00
H2       0.52040    0.62185    0.45126   1.00
H2       0.19140    0.45901    0.64680   1.00
H2       0.17257    0.50978    0.64271   1.00
H2       0.19198    0.48439    0.59879   1.00
H2       0.60187    0.34443    0.87611   1.00
H2       0.61294    0.29155    0.88164   1.00
H2       0.62843    0.31799    0.83681   1.00
H2       0.34058    0.23052    0.77193   1.00
H2       0.32199    0.19153    0.73902   1.00
H2       0.37223    0.21102    0.73234   1.00
C5       0.49215    0.81439    0.79718   1.00
H2       0.50740    0.83855    0.81245   1.00
H2       0.51350    0.80248    0.77590   1.00
C5       0.48044    0.78284    0.82694   1.00
C5       0.51522    0.75597    0.83623   1.00
H2       0.45605    0.76492    0.81515   1.00
O3       0.36699    0.86294    0.64500   1.00
C4       0.41508    0.91541    0.68600   1.00
C3c      0.44121    0.89224    0.70743   1.00
H1       0.46197    0.87398    0.69225   1.00
C3d      0.38864    0.93942    0.70635   1.00
C3       0.44067    0.89177    0.74854   1.00
O2       0.47013    0.87213    0.76748   1.00
C3       0.38752    0.93846    0.74727   1.00
H1       0.36581    0.95633    0.76157   1.00
C2       0.41345    0.91488    0.76939   1.00
C5       0.32764    0.87509    0.64379   1.00
H2       0.31621    0.87676    0.61338   1.00
H2       0.32396    0.90432    0.65766   1.00
C5       0.30360    0.84518    0.66629   1.00
H2       0.31571    0.84270    0.69637   1.00
H2       0.30719    0.81619    0.65198   1.00
C5       0.26027    0.85698    0.66762   1.00
H2       0.24806    0.85977    0.63768   1.00
H2       0.25651    0.88527    0.68311   1.00
C5       0.23649    0.82573    0.68945   1.00
C5       0.37564    0.99724    0.67605   1.00
C5       0.45819    0.83350    0.77570   1.00
H2       0.40087    0.99412    0.65588   1.00
H2       0.38516    1.01426    0.70212   1.00
H2       0.45195    0.81756    0.74800   1.00
H2       0.43114    0.83239    0.79395   1.00
H2       0.47129    0.79614    0.85530   1.00
H2       0.37735    1.04629    0.60747   1.00
H2       0.37701    1.07412    0.65263   1.00
C2       0.41233    0.91477    0.56105   1.00
C3       0.43820    0.93989    0.58097   1.00
O2       0.45541    0.97079    0.56174   1.00
C3       0.38912    0.88883    0.58326   1.00
H1       0.36977    0.86853    0.56885   1.00
C3a      0.43956    0.93930    0.62213   1.00
H1       0.45787    0.96025    0.63702   1.00
C3b      0.38964    0.88918    0.62422   1.00
C4       0.41492    0.91459    0.64400   1.00
O3       0.36037    0.96051    0.68667   1.00
C5       0.49441    0.96169    0.55220   1.00
H2       0.51190    0.95514    0.57891   1.00
C5       0.51148    0.99731    0.53174   1.00
H2       0.49584    0.93603    0.53226   1.00
H2       0.51970    1.01919    0.55432   1.00
H2       0.48771    1.01071    0.51407   1.00
C5       0.54680    0.98738    0.50582   1.00
H2       0.56891    0.97129    0.52324   1.00
C5       0.56563    1.02477    0.48953   1.00
H2       0.53798    0.96938    0.48007   1.00
C5       0.34336    1.01963    0.65517   1.00
H2       0.32115    1.02859    0.67715   1.00
H2       0.32859    0.99932    0.63452   1.00
C5       0.35924    1.05533    0.63300   1.00
C5       0.32516    1.07999    0.61725   1.00
H2       0.53545    0.77109    0.85786   1.00
C5       0.50014    0.71762    0.85412   1.00
H2       0.53189    0.74933    0.80823   1.00
C5       0.19544    0.84167    0.69837   1.00
H2       0.23393    0.79851    0.67051   1.00
H2       0.25182    0.81802    0.71793   1.00
C5       0.60476    1.01453    0.46997   1.00
H2       0.54531    1.03856    0.46711   1.00
H2       0.57094    1.04624    0.51437   1.00
H2       0.30382    1.06031    0.60102   1.00
H2       0.30952    1.09476    0.64261   1.00
C5       0.34102    1.11126    0.58917   1.00
H2       0.46950    0.72229    0.86616   1.00
H2       0.49937    0.69401    0.83071   1.00
H2       0.52040    0.70815    0.87874   1.00
H2       0.19140    0.87099    0.68320   1.00
H2       0.17257    0.82022    0.68729   1.00
H2       0.19198    0.84561    0.73121   1.00
H2       0.60187    0.98557    0.45389   1.00
H2       0.61294    1.03845    0.44836   1.00
H2       0.62843    1.01201    0.49319   1.00
H2       0.34058    1.09948    0.55807   1.00
H2       0.32199    1.13847    0.59098   1.00
H2       0.37223    1.11898    0.59766   1.00
C5       0.31439    1.29718    0.49215   1.00
H2       0.33855    1.31245    0.50740   1.00
H2       0.30248    1.27590    0.51350   1.00
C5       0.28284    1.32694    0.48044   1.00
C5       0.25597    1.33623    0.51522   1.00
H2       0.26492    1.31515    0.45605   1.00
O3       0.36294    1.14500    0.36699   1.00
C4       0.41541    1.18600    0.41508   1.00
C3c      0.39224    1.20743    0.44121   1.00
H1       0.37398    1.19225    0.46197   1.00
C3d      0.43942    1.20635    0.38864   1.00
C3       0.39177    1.24854    0.44067   1.00
O2       0.37213    1.26748    0.47013   1.00
C3       0.43846    1.24727    0.38752   1.00
H1       0.45633    1.26157    0.36581   1.00
C2       0.41488    1.26939    0.41345   1.00
C5       0.37509    1.14379    0.32764   1.00
H2       0.37676    1.11338    0.31621   1.00
H2       0.40432    1.15766    0.32396   1.00
C5       0.34518    1.16629    0.30360   1.00
H2       0.34270    1.19637    0.31571   1.00
H2       0.31619    1.15198    0.30719   1.00
C5       0.35698    1.16762    0.26027   1.00
H2       0.35977    1.13768    0.24806   1.00
H2       0.38527    1.18311    0.25651   1.00
C5       0.32573    1.18945    0.23649   1.00
C5       0.49724    1.17605    0.37564   1.00
C5       0.33350    1.27570    0.45819   1.00
H2       0.49412    1.15588    0.40087   1.00
H2       0.51426    1.20212    0.38516   1.00
H2       0.31756    1.24800    0.45195   1.00
H2       0.33239    1.29395    0.43114   1.00
H2       0.29614    1.35530    0.47129   1.00
H2       0.54629    1.10747    0.37735   1.00
H2       0.57412    1.15263    0.37701   1.00
C2       0.41477    1.06105    0.41233   1.00
C3       0.43989    1.08097    0.43820   1.00
O2       0.47079    1.06174    0.45541   1.00
C3       0.38883    1.08326    0.38912   1.00
H1       0.36853    1.06885    0.36977   1.00
C3a      0.43930    1.12213    0.43956   1.00
H1       0.46025    1.13702    0.45787   1.00
C3b      0.38918    1.12422    0.38964   1.00
C4       0.41459    1.14400    0.41492   1.00
O3       0.46051    1.18667    0.36037   1.00
C5       0.46169    1.05220    0.49441   1.00
H2       0.45514    1.07891    0.51190   1.00
C5       0.49731    1.03174    0.51148   1.00
H2       0.43603    1.03226    0.49584   1.00
H2       0.51919    1.05432    0.51970   1.00
H2       0.51071    1.01407    0.48771   1.00
C5       0.48738    1.00582    0.54680   1.00
H2       0.47129    1.02324    0.56891   1.00
C5       0.52477    0.98953    0.56563   1.00
H2       0.46938    0.98007    0.53798   1.00
C5       0.51963    1.15517    0.34336   1.00
H2       0.52859    1.17715    0.32115   1.00
H2       0.49932    1.13452    0.32859   1.00
C5       0.55533    1.13300    0.35924   1.00
C5       0.57999    1.11725    0.32516   1.00
H2       0.27109    1.35786    0.53545   1.00
C5       0.21762    1.35412    0.50014   1.00
H2       0.24933    1.30823    0.53189   1.00
C5       0.34167    1.19837    0.19544   1.00
H2       0.29851    1.17051    0.23393   1.00
H2       0.31802    1.21793    0.25182   1.00
C5       0.51453    0.96997    0.60476   1.00
H2       0.53856    0.96711    0.54531   1.00
H2       0.54624    1.01437    0.57094   1.00
H2       0.56031    1.10102    0.30382   1.00
H2       0.59476    1.14261    0.30952   1.00
C5       0.61126    1.08917    0.34102   1.00
H2       0.22229    1.36616    0.46950   1.00
H2       0.19401    1.33071    0.49937   1.00
H2       0.20815    1.37874    0.52040   1.00
H2       0.37099    1.18320    0.19140   1.00
H2       0.32022    1.18729    0.17257   1.00
H2       0.34561    1.23121    0.19198   1.00
H2       0.48557    0.95389    0.60187   1.00
H2       0.53845    0.94836    0.61294   1.00
H2       0.51201    0.99319    0.62843   1.00
H2       0.59948    1.05807    0.34058   1.00
H2       0.63847    1.09098    0.32199   1.00
H2       0.61898    1.09766    0.37223   1.00
C5       0.03282    0.99215    0.51561   1.00
H2       0.01755    1.00740    0.49145   1.00
H2       0.05410    1.01350    0.52752   1.00
C5       0.00306    0.98044    0.54716   1.00
C5       -0.00623   1.01522    0.57403   1.00
H2       0.01485    0.95605    0.56508   1.00
O3       0.18500    0.86699    0.46706   1.00
C4       0.14400    0.91508    0.41459   1.00
C3c      0.12257    0.94121    0.43776   1.00
H1       0.13775    0.96197    0.45602   1.00
C3d      0.12365    0.88864    0.39058   1.00
C3       0.08146    0.94067    0.43823   1.00
O2       0.06252    0.97013    0.45787   1.00
C3       0.08273    0.88752    0.39154   1.00
H1       0.06843    0.86581    0.37367   1.00
C2       0.06061    0.91345    0.41512   1.00
C5       0.18621    0.82764    0.45491   1.00
H2       0.21662    0.81621    0.45324   1.00
H2       0.17234    0.82396    0.42568   1.00
C5       0.16371    0.80360    0.48482   1.00
H2       0.13363    0.81571    0.48730   1.00
H2       0.17802    0.80719    0.51381   1.00
C5       0.16238    0.76027    0.47302   1.00
H2       0.19232    0.74806    0.47023   1.00
H2       0.14689    0.75651    0.44473   1.00
C5       0.14055    0.73649    0.50427   1.00
C5       0.15395    0.87564    0.33276   1.00
C5       0.05430    0.95819    0.49650   1.00
H2       0.17412    0.90087    0.33588   1.00
H2       0.12788    0.88516    0.31574   1.00
H2       0.08200    0.95195    0.51244   1.00
H2       0.03605    0.93114    0.49761   1.00
H2       -0.02530   0.97129    0.53386   1.00
H2       0.22253    0.87735    0.28371   1.00
H2       0.17737    0.87701    0.25588   1.00
C2       0.26895    0.91233    0.41523   1.00
C3       0.24903    0.93820    0.39011   1.00
O2       0.26826    0.95541    0.35921   1.00
C3       0.24674    0.88912    0.44117   1.00
H1       0.26115    0.86977    0.46147   1.00
C3a      0.20787    0.93956    0.39070   1.00
H1       0.19298    0.95787    0.36975   1.00
C3b      0.20578    0.88964    0.44082   1.00
C4       0.18600    0.91492    0.41541   1.00
O3       0.14333    0.86037    0.36949   1.00
C5       0.27780    0.99441    0.36831   1.00
H2       0.25109    1.01190    0.37486   1.00
C5       0.29826    1.01148    0.33269   1.00
H2       0.29774    0.99584    0.39397   1.00
H2       0.27568    1.01970    0.31081   1.00
H2       0.31593    0.98771    0.31929   1.00
C5       0.32418    1.04680    0.34262   1.00
H2       0.30676    1.06891    0.35871   1.00
C5       0.34047    1.06563    0.30523   1.00
H2       0.34993    1.03798    0.36062   1.00
C5       0.17483    0.84336    0.31037   1.00
H2       0.15285    0.82115    0.30141   1.00
H2       0.19548    0.82859    0.33068   1.00
C5       0.19700    0.85924    0.27467   1.00
C5       0.21275    0.82516    0.25001   1.00
H2       -0.02786   1.03545    0.55891   1.00
C5       -0.02412   1.00014    0.61238   1.00
H2       0.02177    1.03189    0.58067   1.00
C5       0.13163    0.69544    0.48833   1.00
H2       0.15949    0.73393    0.53149   1.00
H2       0.11207    0.75182    0.51198   1.00
C5       0.36003    1.10476    0.31547   1.00
H2       0.36289    1.04531    0.29144   1.00
H2       0.31563    1.07094    0.28376   1.00
H2       0.22898    0.80382    0.26969   1.00
H2       0.18739    0.80952    0.23524   1.00
C5       0.24083    0.84102    0.21874   1.00
H2       -0.03616   0.96950    0.60771   1.00
H2       -0.00071   0.99937    0.63599   1.00
H2       -0.04874   1.02040    0.62185   1.00
H2       0.14680    0.69140    0.45901   1.00
H2       0.14271    0.67257    0.50978   1.00
H2       0.09879    0.69198    0.48439   1.00
H2       0.37611    1.10187    0.34443   1.00
H2       0.38164    1.11294    0.29155   1.00
H2       0.33681    1.12843    0.31799   1.00
H2       0.27193    0.84058    0.23052   1.00
H2       0.23902    0.82199    0.19153   1.00
H2       0.23234    0.87223    0.21102   1.00
C5       0.79718    0.99215    0.31439   1.00
H2       0.81245    1.00740    0.33855   1.00
H2       0.77590    1.01350    0.30248   1.00
C5       0.82694    0.98044    0.28284   1.00
C5       0.83623    1.01522    0.25597   1.00
H2       0.81515    0.95605    0.26492   1.00
O3       0.64500    0.86699    0.36294   1.00
C4       0.68600    0.91508    0.41541   1.00
C3c      0.70743    0.94121    0.39224   1.00
H1       0.69225    0.96197    0.37398   1.00
C3d      0.70635    0.88864    0.43942   1.00
C3       0.74854    0.94067    0.39177   1.00
O2       0.76748    0.97013    0.37213   1.00
C3       0.74727    0.88752    0.43846   1.00
H1       0.76157    0.86581    0.45633   1.00
C2       0.76939    0.91345    0.41488   1.00
C5       0.64379    0.82764    0.37509   1.00
H2       0.61338    0.81621    0.37676   1.00
H2       0.65766    0.82396    0.40432   1.00
C5       0.66629    0.80360    0.34518   1.00
H2       0.69637    0.81571    0.34270   1.00
H2       0.65198    0.80719    0.31619   1.00
C5       0.66762    0.76027    0.35698   1.00
H2       0.63768    0.74806    0.35977   1.00
H2       0.68311    0.75651    0.38527   1.00
C5       0.68945    0.73649    0.32573   1.00
C5       0.67605    0.87564    0.49724   1.00
C5       0.77570    0.95819    0.33350   1.00
H2       0.65588    0.90087    0.49412   1.00
H2       0.70212    0.88516    0.51426   1.00
H2       0.74800    0.95195    0.31756   1.00
H2       0.79395    0.93114    0.33239   1.00
H2       0.85530    0.97129    0.29614   1.00
H2       0.60747    0.87735    0.54629   1.00
H2       0.65263    0.87701    0.57412   1.00
C2       0.56105    0.91233    0.41477   1.00
C3       0.58097    0.93820    0.43989   1.00
O2       0.56174    0.95541    0.47079   1.00
C3       0.58326    0.88912    0.38883   1.00
H1       0.56885    0.86977    0.36853   1.00
C3a      0.62213    0.93956    0.43930   1.00
H1       0.63702    0.95787    0.46025   1.00
C3b      0.62422    0.88964    0.38918   1.00
C4       0.64400    0.91492    0.41459   1.00
O3       0.68667    0.86037    0.46051   1.00
C5       0.55220    0.99441    0.46169   1.00
H2       0.57891    1.01190    0.45514   1.00
C5       0.53174    1.01148    0.49731   1.00
H2       0.53226    0.99584    0.43603   1.00
H2       0.55432    1.01970    0.51919   1.00
H2       0.51407    0.98771    0.51071   1.00
C5       0.50582    1.04680    0.48738   1.00
H2       0.52324    1.06891    0.47129   1.00
C5       0.48953    1.06563    0.52477   1.00
H2       0.48007    1.03798    0.46938   1.00
C5       0.65517    0.84336    0.51963   1.00
H2       0.67715    0.82115    0.52859   1.00
H2       0.63452    0.82859    0.49932   1.00
C5       0.63300    0.85924    0.55533   1.00
C5       0.61725    0.82516    0.57999   1.00
H2       0.85786    1.03545    0.27109   1.00
C5       0.85412    1.00014    0.21762   1.00
H2       0.80823    1.03189    0.24933   1.00
C5       0.69837    0.69544    0.34167   1.00
H2       0.67051    0.73393    0.29851   1.00
H2       0.71793    0.75182    0.31802   1.00
C5       0.46997    1.10476    0.51453   1.00
H2       0.46711    1.04531    0.53856   1.00
H2       0.51437    1.07094    0.54624   1.00
H2       0.60102    0.80382    0.56031   1.00
H2       0.64261    0.80952    0.59476   1.00
C5       0.58917    0.84102    0.61126   1.00
H2       0.86616    0.96950    0.22229   1.00
H2       0.83071    0.99937    0.19401   1.00
H2       0.87874    1.02040    0.20815   1.00
H2       0.68320    0.69140    0.37099   1.00
H2       0.68729    0.67257    0.32022   1.00
H2       0.73121    0.69198    0.34561   1.00
H2       0.45389    1.10187    0.48557   1.00
H2       0.44836    1.11294    0.53845   1.00
H2       0.49319    1.12843    0.51201   1.00
H2       0.55807    0.84058    0.59948   1.00
H2       0.59098    0.82199    0.63847   1.00
H2       0.59766    0.87223    0.61898   1.00
C5       0.51561    0.53282    0.49215   1.00
H2       0.49145    0.51755    0.50740   1.00
H2       0.52752    0.55410    0.51350   1.00
C5       0.54716    0.50306    0.48044   1.00
C5       0.57403    0.49377    0.51522   1.00
H2       0.56508    0.51485    0.45605   1.00
O3       0.46706    0.68500    0.36699   1.00
C4       0.41459    0.64400    0.41508   1.00
C3c      0.43776    0.62257    0.44121   1.00
H1       0.45602    0.63775    0.46197   1.00
C3d      0.39058    0.62365    0.38864   1.00
C3       0.43823    0.58146    0.44067   1.00
O2       0.45787    0.56252    0.47013   1.00
C3       0.39154    0.58273    0.38752   1.00
H1       0.37367    0.56843    0.36581   1.00
C2       0.41512    0.56061    0.41345   1.00
C5       0.45491    0.68621    0.32764   1.00
H2       0.45324    0.71662    0.31621   1.00
H2       0.42568    0.67234    0.32396   1.00
C5       0.48482    0.66371    0.30360   1.00
H2       0.48730    0.63363    0.31571   1.00
H2       0.51381    0.67802    0.30719   1.00
C5       0.47302    0.66238    0.26027   1.00
H2       0.47023    0.69232    0.24806   1.00
H2       0.44473    0.64689    0.25651   1.00
C5       0.50427    0.64055    0.23649   1.00
C5       0.33276    0.65395    0.37564   1.00
C5       0.49650    0.55430    0.45819   1.00
H2       0.33588    0.67412    0.40087   1.00
H2       0.31574    0.62788    0.38516   1.00
H2       0.51244    0.58200    0.45195   1.00
H2       0.49761    0.53605    0.43114   1.00
H2       0.53386    0.47470    0.47129   1.00
H2       0.28371    0.72253    0.37735   1.00
H2       0.25588    0.67737    0.37701   1.00
C2       0.41523    0.76895    0.41233   1.00
C3       0.39011    0.74903    0.43820   1.00
O2       0.35921    0.76826    0.45541   1.00
C3       0.44117    0.74674    0.38912   1.00
H1       0.46147    0.76115    0.36977   1.00
C3a      0.39070    0.70787    0.43956   1.00
H1       0.36975    0.69298    0.45787   1.00
C3b      0.44082    0.70578    0.38964   1.00
C4       0.41541    0.68600    0.41492   1.00
O3       0.36949    0.64333    0.36037   1.00
C5       0.36831    0.77780    0.49441   1.00
H2       0.37486    0.75109    0.51190   1.00
C5       0.33269    0.79826    0.51148   1.00
H2       0.39397    0.79774    0.49584   1.00
H2       0.31081    0.77568    0.51970   1.00
H2       0.31929    0.81593    0.48771   1.00
C5       0.34262    0.82418    0.54680   1.00
H2       0.35871    0.80676    0.56891   1.00
C5       0.30523    0.84047    0.56563   1.00
H2       0.36062    0.84993    0.53798   1.00
C5       0.31037    0.67483    0.34336   1.00
H2       0.30141    0.65285    0.32115   1.00
H2       0.33068    0.69548    0.32859   1.00
C5       0.27467    0.69700    0.35924   1.00
C5       0.25001    0.71275    0.32516   1.00
H2       0.55891    0.47214    0.53545   1.00
C5       0.61238    0.47588    0.50014   1.00
H2       0.58067    0.52177    0.53189   1.00
C5       0.48833    0.63163    0.19544   1.00
H2       0.53149    0.65949    0.23393   1.00
H2       0.51198    0.61207    0.25182   1.00
C5       0.31547    0.86003    0.60476   1.00
H2       0.29144    0.86289    0.54531   1.00
H2       0.28376    0.81563    0.57094   1.00
H2       0.26969    0.72898    0.30382   1.00
H2       0.23524    0.68739    0.30952   1.00
C5       0.21874    0.74083    0.34102   1.00
H2       0.60771    0.46384    0.46950   1.00
H2       0.63599    0.49929    0.49937   1.00
H2       0.62185    0.45126    0.52040   1.00
H2       0.45901    0.64680    0.19140   1.00
H2       0.50978    0.64271    0.17257   1.00
H2       0.48439    0.59879    0.19198   1.00
H2       0.34443    0.87611    0.60187   1.00
H2       0.29155    0.88164    0.61294   1.00
H2       0.31799    0.83681    0.62843   1.00
H2       0.23052    0.77193    0.34058   1.00
H2       0.19153    0.73902    0.32199   1.00
H2       0.21102    0.73234    0.37223   1.00
C5       0.49215    1.01561    0.03282   1.00
H2       0.50740    0.99145    0.01755   1.00
H2       0.51350    1.02752    0.05410   1.00
C5       0.48044    1.04716    0.00306   1.00
C5       0.51522    1.07403    -0.00623   1.00
H2       0.45605    1.06508    0.01485   1.00
O3       0.36699    0.96706    0.18500   1.00
C4       0.41508    0.91459    0.14400   1.00
C3c      0.44121    0.93776    0.12257   1.00
H1       0.46197    0.95602    0.13775   1.00
C3d      0.38864    0.89058    0.12365   1.00
C3       0.44067    0.93823    0.08146   1.00
O2       0.47013    0.95787    0.06252   1.00
C3       0.38752    0.89154    0.08273   1.00
H1       0.36581    0.87367    0.06843   1.00
C2       0.41345    0.91512    0.06061   1.00
C5       0.32764    0.95491    0.18621   1.00
H2       0.31621    0.95324    0.21662   1.00
H2       0.32396    0.92568    0.17234   1.00
C5       0.30360    0.98482    0.16371   1.00
H2       0.31571    0.98730    0.13363   1.00
H2       0.30719    1.01381    0.17802   1.00
C5       0.26027    0.97302    0.16238   1.00
H2       0.24806    0.97023    0.19232   1.00
H2       0.25651    0.94473    0.14689   1.00
C5       0.23649    1.00427    0.14055   1.00
C5       0.37564    0.83276    0.15395   1.00
C5       0.45819    0.99650    0.05430   1.00
H2       0.40087    0.83588    0.17412   1.00
H2       0.38516    0.81574    0.12788   1.00
H2       0.45195    1.01244    0.08200   1.00
H2       0.43114    0.99761    0.03605   1.00
H2       0.47129    1.03386    -0.02530   1.00
H2       0.37735    0.78371    0.22253   1.00
H2       0.37701    0.75588    0.17737   1.00
C2       0.41233    0.91523    0.26895   1.00
C3       0.43820    0.89011    0.24903   1.00
O2       0.45541    0.85921    0.26826   1.00
C3       0.38912    0.94117    0.24674   1.00
H1       0.36977    0.96147    0.26115   1.00
C3a      0.43956    0.89070    0.20787   1.00
H1       0.45787    0.86975    0.19298   1.00
C3b      0.38964    0.94082    0.20578   1.00
C4       0.41492    0.91541    0.18600   1.00
O3       0.36037    0.86949    0.14333   1.00
C5       0.49441    0.86831    0.27780   1.00
H2       0.51190    0.87486    0.25109   1.00
C5       0.51148    0.83269    0.29826   1.00
H2       0.49584    0.89397    0.29774   1.00
H2       0.51970    0.81081    0.27568   1.00
H2       0.48771    0.81929    0.31593   1.00
C5       0.54680    0.84262    0.32418   1.00
H2       0.56891    0.85871    0.30676   1.00
C5       0.56563    0.80523    0.34047   1.00
H2       0.53798    0.86062    0.34993   1.00
C5       0.34336    0.81037    0.17483   1.00
H2       0.32115    0.80141    0.15285   1.00
H2       0.32859    0.83068    0.19548   1.00
C5       0.35924    0.77467    0.19700   1.00
C5       0.32516    0.75001    0.21275   1.00
H2       0.53545    1.05891    -0.02786   1.00
C5       0.50014    1.11238    -0.02412   1.00
H2       0.53189    1.08067    0.02177   1.00
C5       0.19544    0.98833    0.13163   1.00
H2       0.23393    1.03149    0.15949   1.00
H2       0.25182    1.01198    0.11207   1.00
C5       0.60476    0.81547    0.36003   1.00
H2       0.54531    0.79144    0.36289   1.00
H2       0.57094    0.78376    0.31563   1.00
H2       0.30382    0.76969    0.22898   1.00
H2       0.30952    0.73524    0.18739   1.00
C5       0.34102    0.71874    0.24083   1.00
H2       0.46950    1.10771    -0.03616   1.00
H2       0.49937    1.13599    -0.00071   1.00
H2       0.52040    1.12185    -0.04874   1.00
H2       0.19140    0.95901    0.14680   1.00
H2       0.17257    1.00978    0.14271   1.00
H2       0.19198    0.98439    0.09879   1.00
H2       0.60187    0.84443    0.37611   1.00
H2       0.61294    0.79155    0.38164   1.00
H2       0.62843    0.81799    0.33681   1.00
H2       0.34058    0.73052    0.27193   1.00
H2       0.32199    0.69153    0.23902   1.00
H2       0.37223    0.71102    0.23234   1.00
C5       0.99215    0.31439    0.79718   1.00
H2       1.00740    0.33855    0.81245   1.00
H2       1.01350    0.30248    0.77590   1.00
C5       0.98044    0.28284    0.82694   1.00
C5       1.01522    0.25597    0.83623   1.00
H2       0.95605    0.26492    0.81515   1.00
O3       0.86699    0.36294    0.64500   1.00
C4       0.91508    0.41541    0.68600   1.00
C3c      0.94121    0.39224    0.70743   1.00
H1       0.96197    0.37398    0.69225   1.00
C3d      0.88864    0.43942    0.70635   1.00
C3       0.94067    0.39177    0.74854   1.00
O2       0.97013    0.37213    0.76748   1.00
C3       0.88752    0.43846    0.74727   1.00
H1       0.86581    0.45633    0.76157   1.00
C2       0.91345    0.41488    0.76939   1.00
C5       0.82764    0.37509    0.64379   1.00
H2       0.81621    0.37676    0.61338   1.00
H2       0.82396    0.40432    0.65766   1.00
C5       0.80360    0.34518    0.66629   1.00
H2       0.81571    0.34270    0.69637   1.00
H2       0.80719    0.31619    0.65198   1.00
C5       0.76027    0.35698    0.66762   1.00
H2       0.74806    0.35977    0.63768   1.00
H2       0.75651    0.38527    0.68311   1.00
C5       0.73649    0.32573    0.68945   1.00
C5       0.87564    0.49724    0.67605   1.00
C5       0.95819    0.33350    0.77570   1.00
H2       0.90087    0.49412    0.65588   1.00
H2       0.88516    0.51426    0.70212   1.00
H2       0.95195    0.31756    0.74800   1.00
H2       0.93114    0.33239    0.79395   1.00
H2       0.97129    0.29614    0.85530   1.00
H2       0.87735    0.54629    0.60747   1.00
H2       0.87701    0.57412    0.65263   1.00
C2       0.91233    0.41477    0.56105   1.00
C3       0.93820    0.43989    0.58097   1.00
O2       0.95541    0.47079    0.56174   1.00
C3       0.88912    0.38883    0.58326   1.00
H1       0.86977    0.36853    0.56885   1.00
C3a      0.93956    0.43930    0.62213   1.00
H1       0.95787    0.46025    0.63702   1.00
C3b      0.88964    0.38918    0.62422   1.00
C4       0.91492    0.41459    0.64400   1.00
O3       0.86037    0.46051    0.68667   1.00
C5       0.99441    0.46169    0.55220   1.00
H2       1.01190    0.45514    0.57891   1.00
C5       1.01148    0.49731    0.53174   1.00
H2       0.99584    0.43603    0.53226   1.00
H2       1.01970    0.51919    0.55432   1.00
H2       0.98771    0.51071    0.51407   1.00
C5       1.04680    0.48738    0.50582   1.00
H2       1.06891    0.47129    0.52324   1.00
C5       1.06563    0.52477    0.48953   1.00
H2       1.03798    0.46938    0.48007   1.00
C5       0.84336    0.51963    0.65517   1.00
H2       0.82115    0.52859    0.67715   1.00
H2       0.82859    0.49932    0.63452   1.00
C5       0.85924    0.55533    0.63300   1.00
C5       0.82516    0.57999    0.61725   1.00
H2       1.03545    0.27109    0.85786   1.00
C5       1.00014    0.21762    0.85412   1.00
H2       1.03189    0.24933    0.80823   1.00
C5       0.69544    0.34167    0.69837   1.00
H2       0.73393    0.29851    0.67051   1.00
H2       0.75182    0.31802    0.71793   1.00
C5       1.10476    0.51453    0.46997   1.00
H2       1.04531    0.53856    0.46711   1.00
H2       1.07094    0.54624    0.51437   1.00
H2       0.80382    0.56031    0.60102   1.00
H2       0.80952    0.59476    0.64261   1.00
C5       0.84102    0.61126    0.58917   1.00
H2       0.96950    0.22229    0.86616   1.00
H2       0.99937    0.19401    0.83071   1.00
H2       1.02040    0.20815    0.87874   1.00
H2       0.69140    0.37099    0.68320   1.00
H2       0.67257    0.32022    0.68729   1.00
H2       0.69198    0.34561    0.73121   1.00
H2       1.10187    0.48557    0.45389   1.00
H2       1.11294    0.53845    0.44836   1.00
H2       1.12843    0.51201    0.49319   1.00
H2       0.84058    0.59948    0.55807   1.00
H2       0.82199    0.63847    0.59098   1.00
H2       0.87223    0.61898    0.59766   1.00
C5       0.81439    0.79718    0.49215   1.00
H2       0.83855    0.81245    0.50740   1.00
H2       0.80248    0.77590    0.51350   1.00
C5       0.78284    0.82694    0.48044   1.00
C5       0.75597    0.83623    0.51522   1.00
H2       0.76492    0.81515    0.45605   1.00
O3       0.86294    0.64500    0.36699   1.00
C4       0.91541    0.68600    0.41508   1.00
C3c      0.89224    0.70743    0.44121   1.00
H1       0.87398    0.69225    0.46197   1.00
C3d      0.93942    0.70635    0.38864   1.00
C3       0.89177    0.74854    0.44067   1.00
O2       0.87213    0.76748    0.47013   1.00
C3       0.93846    0.74727    0.38752   1.00
H1       0.95633    0.76157    0.36581   1.00
C2       0.91488    0.76939    0.41345   1.00
C5       0.87509    0.64379    0.32764   1.00
H2       0.87676    0.61338    0.31621   1.00
H2       0.90432    0.65766    0.32396   1.00
C5       0.84518    0.66629    0.30360   1.00
H2       0.84270    0.69637    0.31571   1.00
H2       0.81619    0.65198    0.30719   1.00
C5       0.85698    0.66762    0.26027   1.00
H2       0.85977    0.63768    0.24806   1.00
H2       0.88527    0.68311    0.25651   1.00
C5       0.82573    0.68945    0.23649   1.00
C5       0.99724    0.67605    0.37564   1.00
C5       0.83350    0.77570    0.45819   1.00
H2       0.99412    0.65588    0.40087   1.00
H2       1.01426    0.70212    0.38516   1.00
H2       0.81756    0.74800    0.45195   1.00
H2       0.83239    0.79395    0.43114   1.00
H2       0.79614    0.85530    0.47129   1.00
H2       1.04629    0.60747    0.37735   1.00
H2       1.07412    0.65263    0.37701   1.00
C2       0.91477    0.56105    0.41233   1.00
C3       0.93989    0.58097    0.43820   1.00
O2       0.97079    0.56174    0.45541   1.00
C3       0.88883    0.58326    0.38912   1.00
H1       0.86853    0.56885    0.36977   1.00
C3a      0.93930    0.62213    0.43956   1.00
H1       0.96025    0.63702    0.45787   1.00
C3b      0.88918    0.62422    0.38964   1.00
C4       0.91459    0.64400    0.41492   1.00
O3       0.96051    0.68667    0.36037   1.00
C5       0.96169    0.55220    0.49441   1.00
H2       0.95514    0.57891    0.51190   1.00
C5       0.99731    0.53174    0.51148   1.00
H2       0.93603    0.53226    0.49584   1.00
H2       1.01919    0.55432    0.51970   1.00
H2       1.01071    0.51407    0.48771   1.00
C5       0.98738    0.50582    0.54680   1.00
H2       0.97129    0.52324    0.56891   1.00
C5       1.02477    0.48953    0.56563   1.00
H2       0.96938    0.48007    0.53798   1.00
C5       1.01963    0.65517    0.34336   1.00
H2       1.02859    0.67715    0.32115   1.00
H2       0.99932    0.63452    0.32859   1.00
C5       1.05533    0.63300    0.35924   1.00
C5       1.07999    0.61725    0.32516   1.00
H2       0.77109    0.85786    0.53545   1.00
C5       0.71762    0.85412    0.50014   1.00
H2       0.74933    0.80823    0.53189   1.00
C5       0.84167    0.69837    0.19544   1.00
H2       0.79851    0.67051    0.23393   1.00
H2       0.81802    0.71793    0.25182   1.00
C5       1.01453    0.46997    0.60476   1.00
H2       1.03856    0.46711    0.54531   1.00
H2       1.04624    0.51437    0.57094   1.00
H2       1.06031    0.60102    0.30382   1.00
H2       1.09476    0.64261    0.30952   1.00
C5       1.11126    0.58917    0.34102   1.00
H2       0.72229    0.86616    0.46950   1.00
H2       0.69401    0.83071    0.49937   1.00
H2       0.70815    0.87874    0.52040   1.00
H2       0.87099    0.68320    0.19140   1.00
H2       0.82022    0.68729    0.17257   1.00
H2       0.84561    0.73121    0.19198   1.00
H2       0.98557    0.45389    0.60187   1.00
H2       1.03845    0.44836    0.61294   1.00
H2       1.01201    0.49319    0.62843   1.00
H2       1.09948    0.55807    0.34058   1.00
H2       1.13847    0.59098    0.32199   1.00
H2       1.11898    0.59766    0.37223   1.00
C5       0.53282    0.49215    0.51561   1.00
H2       0.51755    0.50740    0.49145   1.00
H2       0.55410    0.51350    0.52752   1.00
C5       0.50306    0.48044    0.54716   1.00
C5       0.49377    0.51522    0.57403   1.00
H2       0.51485    0.45605    0.56508   1.00
O3       0.68500    0.36699    0.46706   1.00
C4       0.64400    0.41508    0.41459   1.00
C3c      0.62257    0.44121    0.43776   1.00
H1       0.63775    0.46197    0.45602   1.00
C3d      0.62365    0.38864    0.39058   1.00
C3       0.58146    0.44067    0.43823   1.00
O2       0.56252    0.47013    0.45787   1.00
C3       0.58273    0.38752    0.39154   1.00
H1       0.56843    0.36581    0.37367   1.00
C2       0.56061    0.41345    0.41512   1.00
C5       0.68621    0.32764    0.45491   1.00
H2       0.71662    0.31621    0.45324   1.00
H2       0.67234    0.32396    0.42568   1.00
C5       0.66371    0.30360    0.48482   1.00
H2       0.63363    0.31571    0.48730   1.00
H2       0.67802    0.30719    0.51381   1.00
C5       0.66238    0.26027    0.47302   1.00
H2       0.69232    0.24806    0.47023   1.00
H2       0.64689    0.25651    0.44473   1.00
C5       0.64055    0.23649    0.50427   1.00
C5       0.65395    0.37564    0.33276   1.00
C5       0.55430    0.45819    0.49650   1.00
H2       0.67412    0.40087    0.33588   1.00
H2       0.62788    0.38516    0.31574   1.00
H2       0.58200    0.45195    0.51244   1.00
H2       0.53605    0.43114    0.49761   1.00
H2       0.47470    0.47129    0.53386   1.00
H2       0.72253    0.37735    0.28371   1.00
H2       0.67737    0.37701    0.25588   1.00
C2       0.76895    0.41233    0.41523   1.00
C3       0.74903    0.43820    0.39011   1.00
O2       0.76826    0.45541    0.35921   1.00
C3       0.74674    0.38912    0.44117   1.00
H1       0.76115    0.36977    0.46147   1.00
C3a      0.70787    0.43956    0.39070   1.00
H1       0.69298    0.45787    0.36975   1.00
C3b      0.70578    0.38964    0.44082   1.00
C4       0.68600    0.41492    0.41541   1.00
O3       0.64333    0.36037    0.36949   1.00
C5       0.77780    0.49441    0.36831   1.00
H2       0.75109    0.51190    0.37486   1.00
C5       0.79826    0.51148    0.33269   1.00
H2       0.79774    0.49584    0.39397   1.00
H2       0.77568    0.51970    0.31081   1.00
H2       0.81593    0.48771    0.31929   1.00
C5       0.82418    0.54680    0.34262   1.00
H2       0.80676    0.56891    0.35871   1.00
C5       0.84047    0.56563    0.30523   1.00
H2       0.84993    0.53798    0.36062   1.00
C5       0.67483    0.34336    0.31037   1.00
H2       0.65285    0.32115    0.30141   1.00
H2       0.69548    0.32859    0.33068   1.00
C5       0.69700    0.35924    0.27467   1.00
C5       0.71275    0.32516    0.25001   1.00
H2       0.47214    0.53545    0.55891   1.00
C5       0.47588    0.50014    0.61238   1.00
H2       0.52177    0.53189    0.58067   1.00
C5       0.63163    0.19544    0.48833   1.00
H2       0.65949    0.23393    0.53149   1.00
H2       0.61207    0.25182    0.51198   1.00
C5       0.86003    0.60476    0.31547   1.00
H2       0.86289    0.54531    0.29144   1.00
H2       0.81563    0.57094    0.28376   1.00
H2       0.72898    0.30382    0.26969   1.00
H2       0.68739    0.30952    0.23524   1.00
C5       0.74083    0.34102    0.21874   1.00
H2       0.46384    0.46950    0.60771   1.00
H2       0.49929    0.49937    0.63599   1.00
H2       0.45126    0.52040    0.62185   1.00
H2       0.64680    0.19140    0.45901   1.00
H2       0.64271    0.17257    0.50978   1.00
H2       0.59879    0.19198    0.48439   1.00
H2       0.87611    0.60187    0.34443   1.00
H2       0.88164    0.61294    0.29155   1.00
H2       0.83681    0.62843    0.31799   1.00
H2       0.77193    0.34058    0.23052   1.00
H2       0.73902    0.32199    0.19153   1.00
H2       0.73234    0.37223    0.21102   1.00
C5       1.29718    0.49215    0.31439   1.00
H2       1.31245    0.50740    0.33855   1.00
H2       1.27590    0.51350    0.30248   1.00
C5       1.32694    0.48044    0.28284   1.00
C5       1.33623    0.51522    0.25597   1.00
H2       1.31515    0.45605    0.26492   1.00
O3       1.14500    0.36699    0.36294   1.00
C4       1.18600    0.41508    0.41541   1.00
C3c      1.20743    0.44121    0.39224   1.00
H1       1.19225    0.46197    0.37398   1.00
C3d      1.20635    0.38864    0.43942   1.00
C3       1.24854    0.44067    0.39177   1.00
O2       1.26748    0.47013    0.37213   1.00
C3       1.24727    0.38752    0.43846   1.00
H1       1.26157    0.36581    0.45633   1.00
C2       1.26939    0.41345    0.41488   1.00
C5       1.14379    0.32764    0.37509   1.00
H2       1.11338    0.31621    0.37676   1.00
H2       1.15766    0.32396    0.40432   1.00
C5       1.16629    0.30360    0.34518   1.00
H2       1.19637    0.31571    0.34270   1.00
H2       1.15198    0.30719    0.31619   1.00
C5       1.16762    0.26027    0.35698   1.00
H2       1.13768    0.24806    0.35977   1.00
H2       1.18311    0.25651    0.38527   1.00
C5       1.18945    0.23649    0.32573   1.00
C5       1.17605    0.37564    0.49724   1.00
C5       1.27570    0.45819    0.33350   1.00
H2       1.15588    0.40087    0.49412   1.00
H2       1.20212    0.38516    0.51426   1.00
H2       1.24800    0.45195    0.31756   1.00
H2       1.29395    0.43114    0.33239   1.00
H2       1.35530    0.47129    0.29614   1.00
H2       1.10747    0.37735    0.54629   1.00
H2       1.15263    0.37701    0.57412   1.00
C2       1.06105    0.41233    0.41477   1.00
C3       1.08097    0.43820    0.43989   1.00
O2       1.06174    0.45541    0.47079   1.00
C3       1.08326    0.38912    0.38883   1.00
H1       1.06885    0.36977    0.36853   1.00
C3a      1.12213    0.43956    0.43930   1.00
H1       1.13702    0.45787    0.46025   1.00
C3b      1.12422    0.38964    0.38918   1.00
C4       1.14400    0.41492    0.41459   1.00
O3       1.18667    0.36037    0.46051   1.00
C5       1.05220    0.49441    0.46169   1.00
H2       1.07891    0.51190    0.45514   1.00
C5       1.03174    0.51148    0.49731   1.00
H2       1.03226    0.49584    0.43603   1.00
H2       1.05432    0.51970    0.51919   1.00
H2       1.01407    0.48771    0.51071   1.00
C5       1.00582    0.54680    0.48738   1.00
H2       1.02324    0.56891    0.47129   1.00
C5       0.98953    0.56563    0.52477   1.00
H2       0.98007    0.53798    0.46938   1.00
C5       1.15517    0.34336    0.51963   1.00
H2       1.17715    0.32115    0.52859   1.00
H2       1.13452    0.32859    0.49932   1.00
C5       1.13300    0.35924    0.55533   1.00
C5       1.11725    0.32516    0.57999   1.00
H2       1.35786    0.53545    0.27109   1.00
C5       1.35412    0.50014    0.21762   1.00
H2       1.30823    0.53189    0.24933   1.00
C5       1.19837    0.19544    0.34167   1.00
H2       1.17051    0.23393    0.29851   1.00
H2       1.21793    0.25182    0.31802   1.00
C5       0.96997    0.60476    0.51453   1.00
H2       0.96711    0.54531    0.53856   1.00
H2       1.01437    0.57094    0.54624   1.00
H2       1.10102    0.30382    0.56031   1.00
H2       1.14261    0.30952    0.59476   1.00
C5       1.08917    0.34102    0.61126   1.00
H2       1.36616    0.46950    0.22229   1.00
H2       1.33071    0.49937    0.19401   1.00
H2       1.37874    0.52040    0.20815   1.00
H2       1.18320    0.19140    0.37099   1.00
H2       1.18729    0.17257    0.32022   1.00
H2       1.23121    0.19198    0.34561   1.00
H2       0.95389    0.60187    0.48557   1.00
H2       0.94836    0.61294    0.53845   1.00
H2       0.99319    0.62843    0.51201   1.00
H2       1.05807    0.34058    0.59948   1.00
H2       1.09098    0.32199    0.63847   1.00
H2       1.09766    0.37223    0.61898   1.00
C5       1.01561    0.03282    0.49215   1.00
H2       0.99145    0.01755    0.50740   1.00
H2       1.02752    0.05410    0.51350   1.00
C5       1.04716    0.00306    0.48044   1.00
C5       1.07403    -0.00623   0.51522   1.00
H2       1.06508    0.01485    0.45605   1.00
O3       0.96706    0.18500    0.36699   1.00
C4       0.91459    0.14400    0.41508   1.00
C3c      0.93776    0.12257    0.44121   1.00
H1       0.95602    0.13775    0.46197   1.00
C3d      0.89058    0.12365    0.38864   1.00
C3       0.93823    0.08146    0.44067   1.00
O2       0.95787    0.06252    0.47013   1.00
C3       0.89154    0.08273    0.38752   1.00
H1       0.87367    0.06843    0.36581   1.00
C2       0.91512    0.06061    0.41345   1.00
C5       0.95491    0.18621    0.32764   1.00
H2       0.95324    0.21662    0.31621   1.00
H2       0.92568    0.17234    0.32396   1.00
C5       0.98482    0.16371    0.30360   1.00
H2       0.98730    0.13363    0.31571   1.00
H2       1.01381    0.17802    0.30719   1.00
C5       0.97302    0.16238    0.26027   1.00
H2       0.97023    0.19232    0.24806   1.00
H2       0.94473    0.14689    0.25651   1.00
C5       1.00427    0.14055    0.23649   1.00
C5       0.83276    0.15395    0.37564   1.00
C5       0.99650    0.05430    0.45819   1.00
H2       0.83588    0.17412    0.40087   1.00
H2       0.81574    0.12788    0.38516   1.00
H2       1.01244    0.08200    0.45195   1.00
H2       0.99761    0.03605    0.43114   1.00
H2       1.03386    -0.02530   0.47129   1.00
H2       0.78371    0.22253    0.37735   1.00
H2       0.75588    0.17737    0.37701   1.00
C2       0.91523    0.26895    0.41233   1.00
C3       0.89011    0.24903    0.43820   1.00
O2       0.85921    0.26826    0.45541   1.00
C3       0.94117    0.24674    0.38912   1.00
H1       0.96147    0.26115    0.36977   1.00
C3a      0.89070    0.20787    0.43956   1.00
H1       0.86975    0.19298    0.45787   1.00
C3b      0.94082    0.20578    0.38964   1.00
C4       0.91541    0.18600    0.41492   1.00
O3       0.86949    0.14333    0.36037   1.00
C5       0.86831    0.27780    0.49441   1.00
H2       0.87486    0.25109    0.51190   1.00
C5       0.83269    0.29826    0.51148   1.00
H2       0.89397    0.29774    0.49584   1.00
H2       0.81081    0.27568    0.51970   1.00
H2       0.81929    0.31593    0.48771   1.00
C5       0.84262    0.32418    0.54680   1.00
H2       0.85871    0.30676    0.56891   1.00
C5       0.80523    0.34047    0.56563   1.00
H2       0.86062    0.34993    0.53798   1.00
C5       0.81037    0.17483    0.34336   1.00
H2       0.80141    0.15285    0.32115   1.00
H2       0.83068    0.19548    0.32859   1.00
C5       0.77467    0.19700    0.35924   1.00
C5       0.75001    0.21275    0.32516   1.00
H2       1.05891    -0.02786   0.53545   1.00
C5       1.11238    -0.02412   0.50014   1.00
H2       1.08067    0.02177    0.53189   1.00
C5       0.98833    0.13163    0.19544   1.00
H2       1.03149    0.15949    0.23393   1.00
H2       1.01198    0.11207    0.25182   1.00
C5       0.81547    0.36003    0.60476   1.00
H2       0.79144    0.36289    0.54531   1.00
H2       0.78376    0.31563    0.57094   1.00
H2       0.76969    0.22898    0.30382   1.00
H2       0.73524    0.18739    0.30952   1.00
C5       0.71874    0.24083    0.34102   1.00
H2       1.10771    -0.03616   0.46950   1.00
H2       1.13599    -0.00071   0.49937   1.00
H2       1.12185    -0.04874   0.52040   1.00
H2       0.95901    0.14680    0.19140   1.00
H2       1.00978    0.14271    0.17257   1.00
H2       0.98439    0.09879    0.19198   1.00
H2       0.84443    0.37611    0.60187   1.00
H2       0.79155    0.38164    0.61294   1.00
H2       0.81799    0.33681    0.62843   1.00
H2       0.73052    0.27193    0.34058   1.00
H2       0.69153    0.23902    0.32199   1.00
H2       0.71102    0.23234    0.37223   1.00
C5       0.99215    0.51561    0.03282   1.00
H2       1.00740    0.49145    0.01755   1.00
H2       1.01350    0.52752    0.05410   1.00
C5       0.98044    0.54716    0.00306   1.00
C5       1.01522    0.57403    -0.00623   1.00
H2       0.95605    0.56508    0.01485   1.00
O3       0.86699    0.46706    0.18500   1.00
C4       0.91508    0.41459    0.14400   1.00
C3c      0.94121    0.43776    0.12257   1.00
H1       0.96197    0.45602    0.13775   1.00
C3d      0.88864    0.39058    0.12365   1.00
C3       0.94067    0.43823    0.08146   1.00
O2       0.97013    0.45787    0.06252   1.00
C3       0.88752    0.39154    0.08273   1.00
H1       0.86581    0.37367    0.06843   1.00
C2       0.91345    0.41512    0.06061   1.00
C5       0.82764    0.45491    0.18621   1.00
H2       0.81621    0.45324    0.21662   1.00
H2       0.82396    0.42568    0.17234   1.00
C5       0.80360    0.48482    0.16371   1.00
H2       0.81571    0.48730    0.13363   1.00
H2       0.80719    0.51381    0.17802   1.00
C5       0.76027    0.47302    0.16238   1.00
H2       0.74806    0.47023    0.19232   1.00
H2       0.75651    0.44473    0.14689   1.00
C5       0.73649    0.50427    0.14055   1.00
C5       0.87564    0.33276    0.15395   1.00
C5       0.95819    0.49650    0.05430   1.00
H2       0.90087    0.33588    0.17412   1.00
H2       0.88516    0.31574    0.12788   1.00
H2       0.95195    0.51244    0.08200   1.00
H2       0.93114    0.49761    0.03605   1.00
H2       0.97129    0.53386    -0.02530   1.00
H2       0.87735    0.28371    0.22253   1.00
H2       0.87701    0.25588    0.17737   1.00
C2       0.91233    0.41523    0.26895   1.00
C3       0.93820    0.39011    0.24903   1.00
O2       0.95541    0.35921    0.26826   1.00
C3       0.88912    0.44117    0.24674   1.00
H1       0.86977    0.46147    0.26115   1.00
C3a      0.93956    0.39070    0.20787   1.00
H1       0.95787    0.36975    0.19298   1.00
C3b      0.88964    0.44082    0.20578   1.00
C4       0.91492    0.41541    0.18600   1.00
O3       0.86037    0.36949    0.14333   1.00
C5       0.99441    0.36831    0.27780   1.00
H2       1.01190    0.37486    0.25109   1.00
C5       1.01148    0.33269    0.29826   1.00
H2       0.99584    0.39397    0.29774   1.00
H2       1.01970    0.31081    0.27568   1.00
H2       0.98771    0.31929    0.31593   1.00
C5       1.04680    0.34262    0.32418   1.00
H2       1.06891    0.35871    0.30676   1.00
C5       1.06563    0.30523    0.34047   1.00
H2       1.03798    0.36062    0.34993   1.00
C5       0.84336    0.31037    0.17483   1.00
H2       0.82115    0.30141    0.15285   1.00
H2       0.82859    0.33068    0.19548   1.00
C5       0.85924    0.27467    0.19700   1.00
C5       0.82516    0.25001    0.21275   1.00
H2       1.03545    0.55891    -0.02786   1.00
C5       1.00014    0.61238    -0.02412   1.00
H2       1.03189    0.58067    0.02177   1.00
C5       0.69544    0.48833    0.13163   1.00
H2       0.73393    0.53149    0.15949   1.00
H2       0.75182    0.51198    0.11207   1.00
C5       1.10476    0.31547    0.36003   1.00
H2       1.04531    0.29144    0.36289   1.00
H2       1.07094    0.28376    0.31563   1.00
H2       0.80382    0.26969    0.22898   1.00
H2       0.80952    0.23524    0.18739   1.00
C5       0.84102    0.21874    0.24083   1.00
H2       0.96950    0.60771    -0.03616   1.00
H2       0.99937    0.63599    -0.00071   1.00
H2       1.02040    0.62185    -0.04874   1.00
H2       0.69140    0.45901    0.14680   1.00
H2       0.67257    0.50978    0.14271   1.00
H2       0.69198    0.48439    0.09879   1.00
H2       1.10187    0.34443    0.37611   1.00
H2       1.11294    0.29155    0.38164   1.00
H2       1.12843    0.31799    0.33681   1.00
H2       0.84058    0.23052    0.27193   1.00
H2       0.82199    0.19153    0.23902   1.00
H2       0.87223    0.21102    0.23234   1.00
