data_IRMOF10_SG202_interpen_Ligand7cp_label_d.

_audit_creation_method             'generated by an auxiliary program of Tobunporous'

_symmetry_space_group_name_H-M     'P 1'
_symmetry_Int_Tables_number        1
_symmetry_cell_setting             triclinic

_cell_length_a                    34.2800
_cell_length_b                    34.2800
_cell_length_c                    34.2800
_cell_angle_alpha                 90.0000
_cell_angle_beta                  90.0000
_cell_angle_gamma                 90.0000

loop_
_atom_site_label
_atom_site_fract_x
_atom_site_fract_y
_atom_site_fract_z
_atom_site_occupancy
O1       0.75000    0.75000    0.75000   1.00
Zn1      0.71720    0.78280    0.78280   1.00
Zn1      0.78280    0.71720    0.78280   1.00
Zn1      0.78280    0.78280    0.71720   1.00
Zn1      0.71720    0.71720    0.71720   1.00
O2       0.72650    0.77350    0.83820   1.00
O2       0.72650    0.83820    0.77350   1.00
O2       0.66180    0.77350    0.77350   1.00
O2       0.77350    0.72650    0.83820   1.00
O2       0.83820    0.72650    0.77350   1.00
O2       0.77350    0.66180    0.77350   1.00
O2       0.77350    0.83820    0.72650   1.00
O2       0.83820    0.77350    0.72650   1.00
O2       0.77350    0.77350    0.66180   1.00
O2       0.66180    0.72650    0.72650   1.00
O2       0.72650    0.66180    0.72650   1.00
O2       0.72650    0.72650    0.66180   1.00
C1       0.75000    0.75000    0.85520   1.00
C1       0.75000    0.85520    0.75000   1.00
C1       0.64480    0.75000    0.75000   1.00
C1       0.85520    0.75000    0.75000   1.00
C1       0.75000    0.64480    0.75000   1.00
C1       0.75000    0.75000    0.64480   1.00
O1       0.25000    0.25000    0.75000   1.00
Zn1      0.21720    0.28280    0.78280   1.00
Zn1      0.28280    0.21720    0.78280   1.00
Zn1      0.28280    0.28280    0.71720   1.00
Zn1      0.21720    0.21720    0.71720   1.00
O2       0.22650    0.27350    0.83820   1.00
O2       0.22650    0.33820    0.77350   1.00
O2       0.16180    0.27350    0.77350   1.00
O2       0.27350    0.22650    0.83820   1.00
O2       0.33820    0.22650    0.77350   1.00
O2       0.27350    0.16180    0.77350   1.00
O2       0.27350    0.33820    0.72650   1.00
O2       0.33820    0.27350    0.72650   1.00
O2       0.27350    0.27350    0.66180   1.00
O2       0.16180    0.22650    0.72650   1.00
O2       0.22650    0.16180    0.72650   1.00
O2       0.22650    0.22650    0.66180   1.00
C1       0.25000    0.25000    0.85520   1.00
C1       0.25000    0.35520    0.75000   1.00
C1       0.14480    0.25000    0.75000   1.00
C1       0.35520    0.25000    0.75000   1.00
C1       0.25000    0.14480    0.75000   1.00
C1       0.25000    0.25000    0.64480   1.00
O1       0.25000    0.75000    0.25000   1.00
Zn1      0.21720    0.78280    0.28280   1.00
Zn1      0.28280    0.71720    0.28280   1.00
Zn1      0.28280    0.78280    0.21720   1.00
Zn1      0.21720    0.71720    0.21720   1.00
O2       0.22650    0.77350    0.33820   1.00
O2       0.22650    0.83820    0.27350   1.00
O2       0.16180    0.77350    0.27350   1.00
O2       0.27350    0.72650    0.33820   1.00
O2       0.33820    0.72650    0.27350   1.00
O2       0.27350    0.66180    0.27350   1.00
O2       0.27350    0.83820    0.22650   1.00
O2       0.33820    0.77350    0.22650   1.00
O2       0.27350    0.77350    0.16180   1.00
O2       0.16180    0.72650    0.22650   1.00
O2       0.22650    0.66180    0.22650   1.00
O2       0.22650    0.72650    0.16180   1.00
C1       0.25000    0.75000    0.35520   1.00
C1       0.25000    0.85520    0.25000   1.00
C1       0.14480    0.75000    0.25000   1.00
C1       0.35520    0.75000    0.25000   1.00
C1       0.25000    0.64480    0.25000   1.00
C1       0.25000    0.75000    0.14480   1.00
O1       0.75000    0.25000    0.25000   1.00
Zn1      0.71720    0.28280    0.28280   1.00
Zn1      0.78280    0.21720    0.28280   1.00
Zn1      0.78280    0.28280    0.21720   1.00
Zn1      0.71720    0.21720    0.21720   1.00
O2       0.72650    0.27350    0.33820   1.00
O2       0.72650    0.33820    0.27350   1.00
O2       0.66180    0.27350    0.27350   1.00
O2       0.77350    0.22650    0.33820   1.00
O2       0.83820    0.22650    0.27350   1.00
O2       0.77350    0.16180    0.27350   1.00
O2       0.77350    0.33820    0.22650   1.00
O2       0.83820    0.27350    0.22650   1.00
O2       0.77350    0.27350    0.16180   1.00
O2       0.66180    0.22650    0.22650   1.00
O2       0.72650    0.16180    0.22650   1.00
O2       0.72650    0.22650    0.16180   1.00
C1       0.75000    0.25000    0.35520   1.00
C1       0.75000    0.35520    0.25000   1.00
C1       0.64480    0.25000    0.25000   1.00
C1       0.85520    0.25000    0.25000   1.00
C1       0.75000    0.14480    0.25000   1.00
C1       0.75000    0.25000    0.14480   1.00
O1       0.25000    0.25000    0.25000   1.00
Zn1      0.28280    0.21720    0.21720   1.00
Zn1      0.21720    0.28280    0.21720   1.00
Zn1      0.21720    0.21720    0.28280   1.00
Zn1      0.28280    0.28280    0.28280   1.00
O2       0.27350    0.22650    0.16180   1.00
O2       0.27350    0.16180    0.22650   1.00
O2       0.33820    0.22650    0.22650   1.00
O2       0.22650    0.27350    0.16180   1.00
O2       0.16180    0.27350    0.22650   1.00
O2       0.22650    0.33820    0.22650   1.00
O2       0.22650    0.16180    0.27350   1.00
O2       0.16180    0.22650    0.27350   1.00
O2       0.22650    0.22650    0.33820   1.00
O2       0.33820    0.27350    0.27350   1.00
O2       0.27350    0.33820    0.27350   1.00
O2       0.27350    0.27350    0.33820   1.00
C1       0.25000    0.25000    0.14480   1.00
C1       0.25000    0.14480    0.25000   1.00
C1       0.35520    0.25000    0.25000   1.00
C1       0.14480    0.25000    0.25000   1.00
C1       0.25000    0.35520    0.25000   1.00
C1       0.25000    0.25000    0.35520   1.00
O1       0.75000    0.75000    0.25000   1.00
Zn1      0.78280    0.71720    0.21720   1.00
Zn1      0.71720    0.78280    0.21720   1.00
Zn1      0.71720    0.71720    0.28280   1.00
Zn1      0.78280    0.78280    0.28280   1.00
O2       0.77350    0.72650    0.16180   1.00
O2       0.77350    0.66180    0.22650   1.00
O2       0.83820    0.72650    0.22650   1.00
O2       0.72650    0.77350    0.16180   1.00
O2       0.66180    0.77350    0.22650   1.00
O2       0.72650    0.83820    0.22650   1.00
O2       0.72650    0.66180    0.27350   1.00
O2       0.66180    0.72650    0.27350   1.00
O2       0.72650    0.72650    0.33820   1.00
O2       0.83820    0.77350    0.27350   1.00
O2       0.77350    0.83820    0.27350   1.00
O2       0.77350    0.77350    0.33820   1.00
C1       0.75000    0.75000    0.14480   1.00
C1       0.75000    0.64480    0.25000   1.00
C1       0.85520    0.75000    0.25000   1.00
C1       0.64480    0.75000    0.25000   1.00
C1       0.75000    0.85520    0.25000   1.00
C1       0.75000    0.75000    0.35520   1.00
O1       0.75000    0.25000    0.75000   1.00
Zn1      0.78280    0.21720    0.71720   1.00
Zn1      0.71720    0.28280    0.71720   1.00
Zn1      0.71720    0.21720    0.78280   1.00
Zn1      0.78280    0.28280    0.78280   1.00
O2       0.77350    0.22650    0.66180   1.00
O2       0.77350    0.16180    0.72650   1.00
O2       0.83820    0.22650    0.72650   1.00
O2       0.72650    0.27350    0.66180   1.00
O2       0.66180    0.27350    0.72650   1.00
O2       0.72650    0.33820    0.72650   1.00
O2       0.72650    0.16180    0.77350   1.00
O2       0.66180    0.22650    0.77350   1.00
O2       0.72650    0.22650    0.83820   1.00
O2       0.83820    0.27350    0.77350   1.00
O2       0.77350    0.33820    0.77350   1.00
O2       0.77350    0.27350    0.83820   1.00
C1       0.75000    0.25000    0.64480   1.00
C1       0.75000    0.14480    0.75000   1.00
C1       0.85520    0.25000    0.75000   1.00
C1       0.64480    0.25000    0.75000   1.00
C1       0.75000    0.35520    0.75000   1.00
C1       0.75000    0.25000    0.85520   1.00
O1       0.25000    0.75000    0.75000   1.00
Zn1      0.28280    0.71720    0.71720   1.00
Zn1      0.21720    0.78280    0.71720   1.00
Zn1      0.21720    0.71720    0.78280   1.00
Zn1      0.28280    0.78280    0.78280   1.00
O2       0.27350    0.72650    0.66180   1.00
O2       0.27350    0.66180    0.72650   1.00
O2       0.33820    0.72650    0.72650   1.00
O2       0.22650    0.77350    0.66180   1.00
O2       0.16180    0.77350    0.72650   1.00
O2       0.22650    0.83820    0.72650   1.00
O2       0.22650    0.66180    0.77350   1.00
O2       0.16180    0.72650    0.77350   1.00
O2       0.22650    0.72650    0.83820   1.00
O2       0.33820    0.77350    0.77350   1.00
O2       0.27350    0.83820    0.77350   1.00
O2       0.27350    0.77350    0.83820   1.00
C1       0.25000    0.75000    0.64480   1.00
C1       0.25000    0.64480    0.75000   1.00
C1       0.35520    0.75000    0.75000   1.00
C1       0.14480    0.75000    0.75000   1.00
C1       0.25000    0.85520    0.75000   1.00
C1       0.25000    0.75000    0.85520   1.00
O1       0.91500    0.91500    0.91500   1.00
Zn1      0.88220    0.94780    0.94780   1.00
Zn1      0.94780    0.88220    0.94780   1.00
Zn1      0.94780    0.94780    0.88220   1.00
Zn1      0.88220    0.88220    0.88220   1.00
O2       0.89150    0.93850    1.00320   1.00
O2       0.89150    1.00320    0.93850   1.00
O2       0.82680    0.93850    0.93850   1.00
O2       0.93850    0.89150    1.00320   1.00
O2       1.00320    0.89150    0.93850   1.00
O2       0.93850    0.82680    0.93850   1.00
O2       0.93850    1.00320    0.89150   1.00
O2       1.00320    0.93850    0.89150   1.00
O2       0.93850    0.93850    0.82680   1.00
O2       0.82680    0.89150    0.89150   1.00
O2       0.89150    0.82680    0.89150   1.00
O2       0.89150    0.89150    0.82680   1.00
C1       0.91500    0.91500    1.02020   1.00
C1       0.91500    1.02020    0.91500   1.00
C1       0.80980    0.91500    0.91500   1.00
C1       1.02020    0.91500    0.91500   1.00
C1       0.91500    0.80980    0.91500   1.00
C1       0.91500    0.91500    0.80980   1.00
O1       0.41500    0.41500    0.91500   1.00
Zn1      0.38220    0.44780    0.94780   1.00
Zn1      0.44780    0.38220    0.94780   1.00
Zn1      0.44780    0.44780    0.88220   1.00
Zn1      0.38220    0.38220    0.88220   1.00
O2       0.39150    0.43850    1.00320   1.00
O2       0.39150    0.50320    0.93850   1.00
O2       0.32680    0.43850    0.93850   1.00
O2       0.43850    0.39150    1.00320   1.00
O2       0.50320    0.39150    0.93850   1.00
O2       0.43850    0.32680    0.93850   1.00
O2       0.43850    0.50320    0.89150   1.00
O2       0.50320    0.43850    0.89150   1.00
O2       0.43850    0.43850    0.82680   1.00
O2       0.32680    0.39150    0.89150   1.00
O2       0.39150    0.32680    0.89150   1.00
O2       0.39150    0.39150    0.82680   1.00
C1       0.41500    0.41500    1.02020   1.00
C1       0.41500    0.52020    0.91500   1.00
C1       0.30980    0.41500    0.91500   1.00
C1       0.52020    0.41500    0.91500   1.00
C1       0.41500    0.30980    0.91500   1.00
C1       0.41500    0.41500    0.80980   1.00
O1       0.41500    0.91500    0.41500   1.00
Zn1      0.38220    0.94780    0.44780   1.00
Zn1      0.44780    0.88220    0.44780   1.00
Zn1      0.44780    0.94780    0.38220   1.00
Zn1      0.38220    0.88220    0.38220   1.00
O2       0.39150    0.93850    0.50320   1.00
O2       0.39150    1.00320    0.43850   1.00
O2       0.32680    0.93850    0.43850   1.00
O2       0.43850    0.89150    0.50320   1.00
O2       0.50320    0.89150    0.43850   1.00
O2       0.43850    0.82680    0.43850   1.00
O2       0.43850    1.00320    0.39150   1.00
O2       0.50320    0.93850    0.39150   1.00
O2       0.43850    0.93850    0.32680   1.00
O2       0.32680    0.89150    0.39150   1.00
O2       0.39150    0.82680    0.39150   1.00
O2       0.39150    0.89150    0.32680   1.00
C1       0.41500    0.91500    0.52020   1.00
C1       0.41500    1.02020    0.41500   1.00
C1       0.30980    0.91500    0.41500   1.00
C1       0.52020    0.91500    0.41500   1.00
C1       0.41500    0.80980    0.41500   1.00
C1       0.41500    0.91500    0.30980   1.00
O1       0.91500    0.41500    0.41500   1.00
Zn1      0.88220    0.44780    0.44780   1.00
Zn1      0.94780    0.38220    0.44780   1.00
Zn1      0.94780    0.44780    0.38220   1.00
Zn1      0.88220    0.38220    0.38220   1.00
O2       0.89150    0.43850    0.50320   1.00
O2       0.89150    0.50320    0.43850   1.00
O2       0.82680    0.43850    0.43850   1.00
O2       0.93850    0.39150    0.50320   1.00
O2       1.00320    0.39150    0.43850   1.00
O2       0.93850    0.32680    0.43850   1.00
O2       0.93850    0.50320    0.39150   1.00
O2       1.00320    0.43850    0.39150   1.00
O2       0.93850    0.43850    0.32680   1.00
O2       0.82680    0.39150    0.39150   1.00
O2       0.89150    0.32680    0.39150   1.00
O2       0.89150    0.39150    0.32680   1.00
C1       0.91500    0.41500    0.52020   1.00
C1       0.91500    0.52020    0.41500   1.00
C1       0.80980    0.41500    0.41500   1.00
C1       1.02020    0.41500    0.41500   1.00
C1       0.91500    0.30980    0.41500   1.00
C1       0.91500    0.41500    0.30980   1.00
O1       0.41500    0.41500    0.41500   1.00
Zn1      0.44780    0.38220    0.38220   1.00
Zn1      0.38220    0.44780    0.38220   1.00
Zn1      0.38220    0.38220    0.44780   1.00
Zn1      0.44780    0.44780    0.44780   1.00
O2       0.43850    0.39150    0.32680   1.00
O2       0.43850    0.32680    0.39150   1.00
O2       0.50320    0.39150    0.39150   1.00
O2       0.39150    0.43850    0.32680   1.00
O2       0.32680    0.43850    0.39150   1.00
O2       0.39150    0.50320    0.39150   1.00
O2       0.39150    0.32680    0.43850   1.00
O2       0.32680    0.39150    0.43850   1.00
O2       0.39150    0.39150    0.50320   1.00
O2       0.50320    0.43850    0.43850   1.00
O2       0.43850    0.50320    0.43850   1.00
O2       0.43850    0.43850    0.50320   1.00
C1       0.41500    0.41500    0.30980   1.00
C1       0.41500    0.30980    0.41500   1.00
C1       0.52020    0.41500    0.41500   1.00
C1       0.30980    0.41500    0.41500   1.00
C1       0.41500    0.52020    0.41500   1.00
C1       0.41500    0.41500    0.52020   1.00
O1       0.91500    0.91500    0.41500   1.00
Zn1      0.94780    0.88220    0.38220   1.00
Zn1      0.88220    0.94780    0.38220   1.00
Zn1      0.88220    0.88220    0.44780   1.00
Zn1      0.94780    0.94780    0.44780   1.00
O2       0.93850    0.89150    0.32680   1.00
O2       0.93850    0.82680    0.39150   1.00
O2       1.00320    0.89150    0.39150   1.00
O2       0.89150    0.93850    0.32680   1.00
O2       0.82680    0.93850    0.39150   1.00
O2       0.89150    1.00320    0.39150   1.00
O2       0.89150    0.82680    0.43850   1.00
O2       0.82680    0.89150    0.43850   1.00
O2       0.89150    0.89150    0.50320   1.00
O2       1.00320    0.93850    0.43850   1.00
O2       0.93850    1.00320    0.43850   1.00
O2       0.93850    0.93850    0.50320   1.00
C1       0.91500    0.91500    0.30980   1.00
C1       0.91500    0.80980    0.41500   1.00
C1       1.02020    0.91500    0.41500   1.00
C1       0.80980    0.91500    0.41500   1.00
C1       0.91500    1.02020    0.41500   1.00
C1       0.91500    0.91500    0.52020   1.00
O1       0.91500    0.41500    0.91500   1.00
Zn1      0.94780    0.38220    0.88220   1.00
Zn1      0.88220    0.44780    0.88220   1.00
Zn1      0.88220    0.38220    0.94780   1.00
Zn1      0.94780    0.44780    0.94780   1.00
O2       0.93850    0.39150    0.82680   1.00
O2       0.93850    0.32680    0.89150   1.00
O2       1.00320    0.39150    0.89150   1.00
O2       0.89150    0.43850    0.82680   1.00
O2       0.82680    0.43850    0.89150   1.00
O2       0.89150    0.50320    0.89150   1.00
O2       0.89150    0.32680    0.93850   1.00
O2       0.82680    0.39150    0.93850   1.00
O2       0.89150    0.39150    1.00320   1.00
O2       1.00320    0.43850    0.93850   1.00
O2       0.93850    0.50320    0.93850   1.00
O2       0.93850    0.43850    1.00320   1.00
C1       0.91500    0.41500    0.80980   1.00
C1       0.91500    0.30980    0.91500   1.00
C1       1.02020    0.41500    0.91500   1.00
C1       0.80980    0.41500    0.91500   1.00
C1       0.91500    0.52020    0.91500   1.00
C1       0.91500    0.41500    1.02020   1.00
O1       0.41500    0.91500    0.91500   1.00
Zn1      0.44780    0.88220    0.88220   1.00
Zn1      0.38220    0.94780    0.88220   1.00
Zn1      0.38220    0.88220    0.94780   1.00
Zn1      0.44780    0.94780    0.94780   1.00
O2       0.43850    0.89150    0.82680   1.00
O2       0.43850    0.82680    0.89150   1.00
O2       0.50320    0.89150    0.89150   1.00
O2       0.39150    0.93850    0.82680   1.00
O2       0.32680    0.93850    0.89150   1.00
O2       0.39150    1.00320    0.89150   1.00
O2       0.39150    0.82680    0.93850   1.00
O2       0.32680    0.89150    0.93850   1.00
O2       0.39150    0.89150    1.00320   1.00
O2       0.50320    0.93850    0.93850   1.00
O2       0.43850    1.00320    0.93850   1.00
O2       0.43850    0.93850    1.00320   1.00
C1       0.41500    0.91500    0.80980   1.00
C1       0.41500    0.80980    0.91500   1.00
C1       0.52020    0.91500    0.91500   1.00
C1       0.30980    0.91500    0.91500   1.00
C1       0.41500    1.02020    0.91500   1.00
C1       0.41500    0.91500    1.02020   1.00
C5       0.76659    0.87569    1.13218   1.00
H2       0.73872    0.86939    1.14745   1.00
H2       0.75991    0.89922    1.11090   1.00
C5       0.79718    0.88972    1.16194   1.00
C5       0.79159    0.93332    1.17123   1.00
H2       0.82710    0.88515    1.15015   1.00
O3       0.82076    0.75286    0.98000   1.00
C4       0.74965    0.74977    1.02100   1.00
C3c      0.74756    0.78463    1.04243   1.00
H1       0.74579    0.81222    1.02725   1.00
C3d      0.75137    0.71409    1.04135   1.00
C3       0.74827    0.78458    1.08354   1.00
O2       0.74133    0.81930    1.10248   1.00
C3       0.75284    0.71398    1.08227   1.00
H1       0.75556    0.68600    1.09657   1.00
C2       0.75118    0.74899    1.10439   1.00
C5       0.84000    0.71645    0.97879   1.00
H2       0.84689    0.70719    0.94838   1.00
H2       0.82192    0.69318    0.99266   1.00
C5       0.87815    0.72060    1.00129   1.00
H2       0.87133    0.73091    1.03137   1.00
H2       0.89610    0.74364    0.98698   1.00
C5       0.90044    0.68162    1.00262   1.00
H2       0.90710    0.67101    0.97268   1.00
H2       0.88309    0.65896    1.01811   1.00
C5       0.93935    0.68689    1.02445   1.00
C5       0.71968    0.66401    1.01105   1.00
C5       0.77709    0.83817    1.11070   1.00
H2       0.70405    0.68406    0.99088   1.00
H2       0.70091    0.65871    1.03712   1.00
H2       0.79277    0.84503    1.08300   1.00
H2       0.79700    0.81983    1.12895   1.00
H2       0.79424    0.87385    1.19030   1.00
H2       0.68379    0.63054    0.94247   1.00
H2       0.66435    0.61063    0.98763   1.00
C2       0.75205    0.74828    0.89605   1.00
C3       0.71599    0.74880    0.91597   1.00
O2       0.68198    0.73912    0.89674   1.00
C3       0.78681    0.75021    0.91826   1.00
H1       0.81485    0.75088    0.90385   1.00
C3a      0.71545    0.75019    0.95713   1.00
H1       0.68769    0.74832    0.97202   1.00
C3b      0.78619    0.75032    0.95922   1.00
C4       0.75035    0.75023    0.97900   1.00
O3       0.75645    0.67919    1.02167   1.00
C5       0.66084    0.77314    0.88720   1.00
H2       0.65310    0.79013    0.91391   1.00
C5       0.62358    0.76002    0.86674   1.00
H2       0.67797    0.79229    0.86726   1.00
H2       0.60230    0.75036    0.88932   1.00
H2       0.63091    0.73374    0.84907   1.00
C5       0.60562    0.79201    0.84082   1.00
H2       0.60137    0.81903    0.85824   1.00
C5       0.56587    0.77889    0.82453   1.00
H2       0.62459    0.79851    0.81507   1.00
C5       0.72667    0.62536    0.99017   1.00
H2       0.73604    0.60332    1.01215   1.00
H2       0.75148    0.62928    0.96952   1.00
C5       0.69020    0.61135    0.96800   1.00
C5       0.69687    0.56981    0.95225   1.00
H2       0.76659    0.93693    1.19286   1.00
C5       0.82937    0.94978    1.18912   1.00
H2       0.78449    0.94980    1.14323   1.00
C5       0.95710    0.64660    1.03337   1.00
H2       0.96040    0.70434    1.00551   1.00
H2       0.93396    0.70318    1.05293   1.00
C5       0.54544    0.81380    0.80497   1.00
H2       0.57049    0.75477    0.80211   1.00
H2       0.54693    0.76747    0.84937   1.00
H2       0.72587    0.56863    0.93602   1.00
H2       0.69747    0.54830    0.97761   1.00
C5       0.66354    0.55891    0.92417   1.00
H2       0.84773    0.92480    1.20116   1.00
H2       0.84661    0.96592    1.16571   1.00
H2       0.82173    0.97080    1.21374   1.00
H2       0.93922    0.62301    1.01820   1.00
H2       0.98844    0.64559    1.02229   1.00
H2       0.95677    0.64136    1.06621   1.00
H2       0.56797    0.83224    0.78889   1.00
H2       0.52275    0.80267    0.78336   1.00
H2       0.53049    0.83233    0.82819   1.00
H2       0.67217    0.56693    0.89307   1.00
H2       0.65775    0.52621    0.92598   1.00
H2       0.63601    0.57553    0.93266   1.00
C5       0.87569    1.13218    0.76659   1.00
H2       0.86939    1.14745    0.73872   1.00
H2       0.89922    1.11090    0.75991   1.00
C5       0.88972    1.16194    0.79718   1.00
C5       0.93332    1.17123    0.79159   1.00
H2       0.88515    1.15015    0.82710   1.00
O3       0.75286    0.98000    0.82076   1.00
C4       0.74977    1.02100    0.74965   1.00
C3c      0.78463    1.04243    0.74756   1.00
H1       0.81222    1.02725    0.74579   1.00
C3d      0.71409    1.04135    0.75137   1.00
C3       0.78458    1.08354    0.74827   1.00
O2       0.81930    1.10248    0.74133   1.00
C3       0.71398    1.08227    0.75284   1.00
H1       0.68600    1.09657    0.75556   1.00
C2       0.74899    1.10439    0.75118   1.00
C5       0.71645    0.97879    0.84000   1.00
H2       0.70719    0.94838    0.84689   1.00
H2       0.69318    0.99266    0.82192   1.00
C5       0.72060    1.00129    0.87815   1.00
H2       0.73091    1.03137    0.87133   1.00
H2       0.74364    0.98698    0.89610   1.00
C5       0.68162    1.00262    0.90044   1.00
H2       0.67101    0.97268    0.90710   1.00
H2       0.65896    1.01811    0.88309   1.00
C5       0.68689    1.02445    0.93935   1.00
C5       0.66401    1.01105    0.71968   1.00
C5       0.83817    1.11070    0.77709   1.00
H2       0.68406    0.99088    0.70405   1.00
H2       0.65871    1.03712    0.70091   1.00
H2       0.84503    1.08300    0.79277   1.00
H2       0.81983    1.12895    0.79700   1.00
H2       0.87385    1.19030    0.79424   1.00
H2       0.63054    0.94247    0.68379   1.00
H2       0.61063    0.98763    0.66435   1.00
C2       0.74828    0.89605    0.75205   1.00
C3       0.74880    0.91597    0.71599   1.00
O2       0.73912    0.89674    0.68198   1.00
C3       0.75021    0.91826    0.78681   1.00
H1       0.75088    0.90385    0.81485   1.00
C3a      0.75019    0.95713    0.71545   1.00
H1       0.74832    0.97202    0.68769   1.00
C3b      0.75032    0.95922    0.78619   1.00
C4       0.75023    0.97900    0.75035   1.00
O3       0.67919    1.02167    0.75645   1.00
C5       0.77314    0.88720    0.66084   1.00
H2       0.79013    0.91391    0.65310   1.00
C5       0.76002    0.86674    0.62358   1.00
H2       0.79229    0.86726    0.67797   1.00
H2       0.75036    0.88932    0.60230   1.00
H2       0.73374    0.84907    0.63091   1.00
C5       0.79201    0.84082    0.60562   1.00
H2       0.81903    0.85824    0.60137   1.00
C5       0.77889    0.82453    0.56587   1.00
H2       0.79851    0.81507    0.62459   1.00
C5       0.62536    0.99017    0.72667   1.00
H2       0.60332    1.01215    0.73604   1.00
H2       0.62928    0.96952    0.75148   1.00
C5       0.61135    0.96800    0.69020   1.00
C5       0.56981    0.95225    0.69687   1.00
H2       0.93693    1.19286    0.76659   1.00
C5       0.94978    1.18912    0.82937   1.00
H2       0.94980    1.14323    0.78449   1.00
C5       0.64660    1.03337    0.95710   1.00
H2       0.70434    1.00551    0.96040   1.00
H2       0.70318    1.05293    0.93396   1.00
C5       0.81380    0.80497    0.54544   1.00
H2       0.75477    0.80211    0.57049   1.00
H2       0.76747    0.84937    0.54693   1.00
H2       0.56863    0.93602    0.72587   1.00
H2       0.54830    0.97761    0.69747   1.00
C5       0.55891    0.92417    0.66354   1.00
H2       0.92480    1.20116    0.84773   1.00
H2       0.96592    1.16571    0.84661   1.00
H2       0.97080    1.21374    0.82173   1.00
H2       0.62301    1.01820    0.93922   1.00
H2       0.64559    1.02229    0.98844   1.00
H2       0.64136    1.06621    0.95677   1.00
H2       0.83224    0.78889    0.56797   1.00
H2       0.80267    0.78336    0.52275   1.00
H2       0.83233    0.82819    0.53049   1.00
H2       0.56693    0.89307    0.67217   1.00
H2       0.52621    0.92598    0.65775   1.00
H2       0.57553    0.93266    0.63601   1.00
C5       0.36782    0.76659    0.62431   1.00
H2       0.35255    0.73872    0.63061   1.00
H2       0.38910    0.75991    0.60078   1.00
C5       0.33806    0.79718    0.61028   1.00
C5       0.32877    0.79159    0.56668   1.00
H2       0.34985    0.82710    0.61485   1.00
O3       0.52000    0.82076    0.74714   1.00
C4       0.47900    0.74965    0.75023   1.00
C3c      0.45757    0.74756    0.71537   1.00
H1       0.47275    0.74579    0.68778   1.00
C3d      0.45865    0.75137    0.78591   1.00
C3       0.41646    0.74827    0.71542   1.00
O2       0.39752    0.74133    0.68070   1.00
C3       0.41773    0.75284    0.78602   1.00
H1       0.40343    0.75556    0.81400   1.00
C2       0.39561    0.75118    0.75101   1.00
C5       0.52121    0.84000    0.78355   1.00
H2       0.55162    0.84689    0.79281   1.00
H2       0.50734    0.82192    0.80682   1.00
C5       0.49871    0.87815    0.77940   1.00
H2       0.46863    0.87133    0.76909   1.00
H2       0.51302    0.89610    0.75636   1.00
C5       0.49738    0.90044    0.81838   1.00
H2       0.52732    0.90710    0.82899   1.00
H2       0.48189    0.88309    0.84104   1.00
C5       0.47555    0.93935    0.81311   1.00
C5       0.48895    0.71968    0.83599   1.00
C5       0.38930    0.77709    0.66183   1.00
H2       0.50912    0.70405    0.81594   1.00
H2       0.46288    0.70091    0.84129   1.00
H2       0.41700    0.79277    0.65497   1.00
H2       0.37105    0.79700    0.68017   1.00
H2       0.30970    0.79424    0.62615   1.00
H2       0.55753    0.68379    0.86946   1.00
H2       0.51237    0.66435    0.88937   1.00
C2       0.60395    0.75205    0.75172   1.00
C3       0.58403    0.71599    0.75120   1.00
O2       0.60326    0.68198    0.76088   1.00
C3       0.58174    0.78681    0.74979   1.00
H1       0.59615    0.81485    0.74912   1.00
C3a      0.54287    0.71545    0.74981   1.00
H1       0.52798    0.68769    0.75168   1.00
C3b      0.54078    0.78619    0.74968   1.00
C4       0.52100    0.75035    0.74977   1.00
O3       0.47833    0.75645    0.82081   1.00
C5       0.61280    0.66084    0.72686   1.00
H2       0.58609    0.65310    0.70987   1.00
C5       0.63326    0.62358    0.73998   1.00
H2       0.63274    0.67797    0.70771   1.00
H2       0.61068    0.60230    0.74964   1.00
H2       0.65093    0.63091    0.76626   1.00
C5       0.65918    0.60562    0.70799   1.00
H2       0.64176    0.60137    0.68097   1.00
C5       0.67547    0.56587    0.72111   1.00
H2       0.68493    0.62459    0.70149   1.00
C5       0.50983    0.72667    0.87464   1.00
H2       0.48785    0.73604    0.89668   1.00
H2       0.53048    0.75148    0.87072   1.00
C5       0.53200    0.69020    0.88865   1.00
C5       0.54775    0.69687    0.93019   1.00
H2       0.30714    0.76659    0.56307   1.00
C5       0.31088    0.82937    0.55022   1.00
H2       0.35677    0.78449    0.55020   1.00
C5       0.46663    0.95710    0.85340   1.00
H2       0.49449    0.96040    0.79566   1.00
H2       0.44707    0.93396    0.79682   1.00
C5       0.69503    0.54544    0.68620   1.00
H2       0.69789    0.57049    0.74523   1.00
H2       0.65063    0.54693    0.73253   1.00
H2       0.56398    0.72587    0.93137   1.00
H2       0.52239    0.69747    0.95170   1.00
C5       0.57583    0.66354    0.94109   1.00
H2       0.29884    0.84773    0.57520   1.00
H2       0.33429    0.84661    0.53408   1.00
H2       0.28626    0.82173    0.52920   1.00
H2       0.48180    0.93922    0.87699   1.00
H2       0.47771    0.98844    0.85441   1.00
H2       0.43379    0.95677    0.85864   1.00
H2       0.71111    0.56797    0.66776   1.00
H2       0.71664    0.52275    0.69733   1.00
H2       0.67181    0.53049    0.66767   1.00
H2       0.60693    0.67217    0.93307   1.00
H2       0.57402    0.65775    0.97379   1.00
H2       0.56734    0.63601    0.92447   1.00
C5       1.13218    0.76659    0.87569   1.00
H2       1.14745    0.73872    0.86939   1.00
H2       1.11090    0.75991    0.89922   1.00
C5       1.16194    0.79718    0.88972   1.00
C5       1.17123    0.79159    0.93332   1.00
H2       1.15015    0.82710    0.88515   1.00
O3       0.98000    0.82076    0.75286   1.00
C4       1.02100    0.74965    0.74977   1.00
C3c      1.04243    0.74756    0.78463   1.00
H1       1.02725    0.74579    0.81222   1.00
C3d      1.04135    0.75137    0.71409   1.00
C3       1.08354    0.74827    0.78458   1.00
O2       1.10248    0.74133    0.81930   1.00
C3       1.08227    0.75284    0.71398   1.00
H1       1.09657    0.75556    0.68600   1.00
C2       1.10439    0.75118    0.74899   1.00
C5       0.97879    0.84000    0.71645   1.00
H2       0.94838    0.84689    0.70719   1.00
H2       0.99266    0.82192    0.69318   1.00
C5       1.00129    0.87815    0.72060   1.00
H2       1.03137    0.87133    0.73091   1.00
H2       0.98698    0.89610    0.74364   1.00
C5       1.00262    0.90044    0.68162   1.00
H2       0.97268    0.90710    0.67101   1.00
H2       1.01811    0.88309    0.65896   1.00
C5       1.02445    0.93935    0.68689   1.00
C5       1.01105    0.71968    0.66401   1.00
C5       1.11070    0.77709    0.83817   1.00
H2       0.99088    0.70405    0.68406   1.00
H2       1.03712    0.70091    0.65871   1.00
H2       1.08300    0.79277    0.84503   1.00
H2       1.12895    0.79700    0.81983   1.00
H2       1.19030    0.79424    0.87385   1.00
H2       0.94247    0.68379    0.63054   1.00
H2       0.98763    0.66435    0.61063   1.00
C2       0.89605    0.75205    0.74828   1.00
C3       0.91597    0.71599    0.74880   1.00
O2       0.89674    0.68198    0.73912   1.00
C3       0.91826    0.78681    0.75021   1.00
H1       0.90385    0.81485    0.75088   1.00
C3a      0.95713    0.71545    0.75019   1.00
H1       0.97202    0.68769    0.74832   1.00
C3b      0.95922    0.78619    0.75032   1.00
C4       0.97900    0.75035    0.75023   1.00
O3       1.02167    0.75645    0.67919   1.00
C5       0.88720    0.66084    0.77314   1.00
H2       0.91391    0.65310    0.79013   1.00
C5       0.86674    0.62358    0.76002   1.00
H2       0.86726    0.67797    0.79229   1.00
H2       0.88932    0.60230    0.75036   1.00
H2       0.84907    0.63091    0.73374   1.00
C5       0.84082    0.60562    0.79201   1.00
H2       0.85824    0.60137    0.81903   1.00
C5       0.82453    0.56587    0.77889   1.00
H2       0.81507    0.62459    0.79851   1.00
C5       0.99017    0.72667    0.62536   1.00
H2       1.01215    0.73604    0.60332   1.00
H2       0.96952    0.75148    0.62928   1.00
C5       0.96800    0.69020    0.61135   1.00
C5       0.95225    0.69687    0.56981   1.00
H2       1.19286    0.76659    0.93693   1.00
C5       1.18912    0.82937    0.94978   1.00
H2       1.14323    0.78449    0.94980   1.00
C5       1.03337    0.95710    0.64660   1.00
H2       1.00551    0.96040    0.70434   1.00
H2       1.05293    0.93396    0.70318   1.00
C5       0.80497    0.54544    0.81380   1.00
H2       0.80211    0.57049    0.75477   1.00
H2       0.84937    0.54693    0.76747   1.00
H2       0.93602    0.72587    0.56863   1.00
H2       0.97761    0.69747    0.54830   1.00
C5       0.92417    0.66354    0.55891   1.00
H2       1.20116    0.84773    0.92480   1.00
H2       1.16571    0.84661    0.96592   1.00
H2       1.21374    0.82173    0.97080   1.00
H2       1.01820    0.93922    0.62301   1.00
H2       1.02229    0.98844    0.64559   1.00
H2       1.06621    0.95677    0.64136   1.00
H2       0.78889    0.56797    0.83224   1.00
H2       0.78336    0.52275    0.80267   1.00
H2       0.82819    0.53049    0.83233   1.00
H2       0.89307    0.67217    0.56693   1.00
H2       0.92598    0.65775    0.52621   1.00
H2       0.93266    0.63601    0.57553   1.00
C5       0.62431    0.36782    0.76659   1.00
H2       0.63061    0.35255    0.73872   1.00
H2       0.60078    0.38910    0.75991   1.00
C5       0.61028    0.33806    0.79718   1.00
C5       0.56668    0.32877    0.79159   1.00
H2       0.61485    0.34985    0.82710   1.00
O3       0.74714    0.52000    0.82076   1.00
C4       0.75023    0.47900    0.74965   1.00
C3c      0.71537    0.45757    0.74756   1.00
H1       0.68778    0.47275    0.74579   1.00
C3d      0.78591    0.45865    0.75137   1.00
C3       0.71542    0.41646    0.74827   1.00
O2       0.68070    0.39752    0.74133   1.00
C3       0.78602    0.41773    0.75284   1.00
H1       0.81400    0.40343    0.75556   1.00
C2       0.75101    0.39561    0.75118   1.00
C5       0.78355    0.52121    0.84000   1.00
H2       0.79281    0.55162    0.84689   1.00
H2       0.80682    0.50734    0.82192   1.00
C5       0.77940    0.49871    0.87815   1.00
H2       0.76909    0.46863    0.87133   1.00
H2       0.75636    0.51302    0.89610   1.00
C5       0.81838    0.49738    0.90044   1.00
H2       0.82899    0.52732    0.90710   1.00
H2       0.84104    0.48189    0.88309   1.00
C5       0.81311    0.47555    0.93935   1.00
C5       0.83599    0.48895    0.71968   1.00
C5       0.66183    0.38930    0.77709   1.00
H2       0.81594    0.50912    0.70405   1.00
H2       0.84129    0.46288    0.70091   1.00
H2       0.65497    0.41700    0.79277   1.00
H2       0.68017    0.37105    0.79700   1.00
H2       0.62615    0.30970    0.79424   1.00
H2       0.86946    0.55753    0.68379   1.00
H2       0.88937    0.51237    0.66435   1.00
C2       0.75172    0.60395    0.75205   1.00
C3       0.75120    0.58403    0.71599   1.00
O2       0.76088    0.60326    0.68198   1.00
C3       0.74979    0.58174    0.78681   1.00
H1       0.74912    0.59615    0.81485   1.00
C3a      0.74981    0.54287    0.71545   1.00
H1       0.75168    0.52798    0.68769   1.00
C3b      0.74968    0.54078    0.78619   1.00
C4       0.74977    0.52100    0.75035   1.00
O3       0.82081    0.47833    0.75645   1.00
C5       0.72686    0.61280    0.66084   1.00
H2       0.70987    0.58609    0.65310   1.00
C5       0.73998    0.63326    0.62358   1.00
H2       0.70771    0.63274    0.67797   1.00
H2       0.74964    0.61068    0.60230   1.00
H2       0.76626    0.65093    0.63091   1.00
C5       0.70799    0.65918    0.60562   1.00
H2       0.68097    0.64176    0.60137   1.00
C5       0.72111    0.67547    0.56587   1.00
H2       0.70149    0.68493    0.62459   1.00
C5       0.87464    0.50983    0.72667   1.00
H2       0.89668    0.48785    0.73604   1.00
H2       0.87072    0.53048    0.75148   1.00
C5       0.88865    0.53200    0.69020   1.00
C5       0.93019    0.54775    0.69687   1.00
H2       0.56307    0.30714    0.76659   1.00
C5       0.55022    0.31088    0.82937   1.00
H2       0.55020    0.35677    0.78449   1.00
C5       0.85340    0.46663    0.95710   1.00
H2       0.79566    0.49449    0.96040   1.00
H2       0.79682    0.44707    0.93396   1.00
C5       0.68620    0.69503    0.54544   1.00
H2       0.74523    0.69789    0.57049   1.00
H2       0.73253    0.65063    0.54693   1.00
H2       0.93137    0.56398    0.72587   1.00
H2       0.95170    0.52239    0.69747   1.00
C5       0.94109    0.57583    0.66354   1.00
H2       0.57520    0.29884    0.84773   1.00
H2       0.53408    0.33429    0.84661   1.00
H2       0.52920    0.28626    0.82173   1.00
H2       0.87699    0.48180    0.93922   1.00
H2       0.85441    0.47771    0.98844   1.00
H2       0.85864    0.43379    0.95677   1.00
H2       0.66776    0.71111    0.56797   1.00
H2       0.69733    0.71664    0.52275   1.00
H2       0.66767    0.67181    0.53049   1.00
H2       0.93307    0.60693    0.67217   1.00
H2       0.97379    0.57402    0.65775   1.00
H2       0.92447    0.56734    0.63601   1.00
C5       0.76659    0.62431    0.36782   1.00
H2       0.73872    0.63061    0.35255   1.00
H2       0.75991    0.60078    0.38910   1.00
C5       0.79718    0.61028    0.33806   1.00
C5       0.79159    0.56668    0.32877   1.00
H2       0.82710    0.61485    0.34985   1.00
O3       0.82076    0.74714    0.52000   1.00
C4       0.74965    0.75023    0.47900   1.00
C3c      0.74756    0.71537    0.45757   1.00
H1       0.74579    0.68778    0.47275   1.00
C3d      0.75137    0.78591    0.45865   1.00
C3       0.74827    0.71542    0.41646   1.00
O2       0.74133    0.68070    0.39752   1.00
C3       0.75284    0.78602    0.41773   1.00
H1       0.75556    0.81400    0.40343   1.00
C2       0.75118    0.75101    0.39561   1.00
C5       0.84000    0.78355    0.52121   1.00
H2       0.84689    0.79281    0.55162   1.00
H2       0.82192    0.80682    0.50734   1.00
C5       0.87815    0.77940    0.49871   1.00
H2       0.87133    0.76909    0.46863   1.00
H2       0.89610    0.75636    0.51302   1.00
C5       0.90044    0.81838    0.49738   1.00
H2       0.90710    0.82899    0.52732   1.00
H2       0.88309    0.84104    0.48189   1.00
C5       0.93935    0.81311    0.47555   1.00
C5       0.71968    0.83599    0.48895   1.00
C5       0.77709    0.66183    0.38930   1.00
H2       0.70405    0.81594    0.50912   1.00
H2       0.70091    0.84129    0.46288   1.00
H2       0.79277    0.65497    0.41700   1.00
H2       0.79700    0.68017    0.37105   1.00
H2       0.79424    0.62615    0.30970   1.00
H2       0.68379    0.86946    0.55753   1.00
H2       0.66435    0.88937    0.51237   1.00
C2       0.75205    0.75172    0.60395   1.00
C3       0.71599    0.75120    0.58403   1.00
O2       0.68198    0.76088    0.60326   1.00
C3       0.78681    0.74979    0.58174   1.00
H1       0.81485    0.74912    0.59615   1.00
C3a      0.71545    0.74981    0.54287   1.00
H1       0.68769    0.75168    0.52798   1.00
C3b      0.78619    0.74968    0.54078   1.00
C4       0.75035    0.74977    0.52100   1.00
O3       0.75645    0.82081    0.47833   1.00
C5       0.66084    0.72686    0.61280   1.00
H2       0.65310    0.70987    0.58609   1.00
C5       0.62358    0.73998    0.63326   1.00
H2       0.67797    0.70771    0.63274   1.00
H2       0.60230    0.74964    0.61068   1.00
H2       0.63091    0.76626    0.65093   1.00
C5       0.60562    0.70799    0.65918   1.00
H2       0.60137    0.68097    0.64176   1.00
C5       0.56587    0.72111    0.67547   1.00
H2       0.62459    0.70149    0.68493   1.00
C5       0.72667    0.87464    0.50983   1.00
H2       0.73604    0.89668    0.48785   1.00
H2       0.75148    0.87072    0.53048   1.00
C5       0.69020    0.88865    0.53200   1.00
C5       0.69687    0.93019    0.54775   1.00
H2       0.76659    0.56307    0.30714   1.00
C5       0.82937    0.55022    0.31088   1.00
H2       0.78449    0.55020    0.35677   1.00
C5       0.95710    0.85340    0.46663   1.00
H2       0.96040    0.79566    0.49449   1.00
H2       0.93396    0.79682    0.44707   1.00
C5       0.54544    0.68620    0.69503   1.00
H2       0.57049    0.74523    0.69789   1.00
H2       0.54693    0.73253    0.65063   1.00
H2       0.72587    0.93137    0.56398   1.00
H2       0.69747    0.95170    0.52239   1.00
C5       0.66354    0.94109    0.57583   1.00
H2       0.84773    0.57520    0.29884   1.00
H2       0.84661    0.53408    0.33429   1.00
H2       0.82173    0.52920    0.28626   1.00
H2       0.93922    0.87699    0.48180   1.00
H2       0.98844    0.85441    0.47771   1.00
H2       0.95677    0.85864    0.43379   1.00
H2       0.56797    0.66776    0.71111   1.00
H2       0.52275    0.69733    0.71664   1.00
H2       0.53049    0.66767    0.67181   1.00
H2       0.67217    0.93307    0.60693   1.00
H2       0.65775    0.97379    0.57402   1.00
H2       0.63601    0.92447    0.56734   1.00
C5       0.26659    0.37569    1.13218   1.00
H2       0.23872    0.36939    1.14745   1.00
H2       0.25991    0.39922    1.11090   1.00
C5       0.29718    0.38972    1.16194   1.00
C5       0.29159    0.43332    1.17123   1.00
H2       0.32710    0.38515    1.15015   1.00
O3       0.32076    0.25286    0.98000   1.00
C4       0.24965    0.24977    1.02100   1.00
C3c      0.24756    0.28463    1.04243   1.00
H1       0.24579    0.31222    1.02725   1.00
C3d      0.25137    0.21409    1.04135   1.00
C3       0.24827    0.28458    1.08354   1.00
O2       0.24133    0.31930    1.10248   1.00
C3       0.25284    0.21398    1.08227   1.00
H1       0.25556    0.18600    1.09657   1.00
C2       0.25118    0.24899    1.10439   1.00
C5       0.34000    0.21645    0.97879   1.00
H2       0.34689    0.20719    0.94838   1.00
H2       0.32192    0.19318    0.99266   1.00
C5       0.37815    0.22060    1.00129   1.00
H2       0.37133    0.23091    1.03137   1.00
H2       0.39610    0.24364    0.98698   1.00
C5       0.40044    0.18162    1.00262   1.00
H2       0.40710    0.17101    0.97268   1.00
H2       0.38309    0.15896    1.01811   1.00
C5       0.43935    0.18689    1.02445   1.00
C5       0.21968    0.16401    1.01105   1.00
C5       0.27709    0.33817    1.11070   1.00
H2       0.20405    0.18406    0.99088   1.00
H2       0.20091    0.15871    1.03712   1.00
H2       0.29277    0.34503    1.08300   1.00
H2       0.29700    0.31983    1.12895   1.00
H2       0.29424    0.37385    1.19030   1.00
H2       0.18379    0.13054    0.94247   1.00
H2       0.16435    0.11063    0.98763   1.00
C2       0.25205    0.24828    0.89605   1.00
C3       0.21599    0.24880    0.91597   1.00
O2       0.18198    0.23912    0.89674   1.00
C3       0.28681    0.25021    0.91826   1.00
H1       0.31485    0.25088    0.90385   1.00
C3a      0.21545    0.25019    0.95713   1.00
H1       0.18769    0.24832    0.97202   1.00
C3b      0.28619    0.25032    0.95922   1.00
C4       0.25035    0.25023    0.97900   1.00
O3       0.25645    0.17919    1.02167   1.00
C5       0.16084    0.27314    0.88720   1.00
H2       0.15310    0.29013    0.91391   1.00
C5       0.12358    0.26002    0.86674   1.00
H2       0.17797    0.29229    0.86726   1.00
H2       0.10230    0.25036    0.88932   1.00
H2       0.13091    0.23374    0.84907   1.00
C5       0.10562    0.29201    0.84082   1.00
H2       0.10137    0.31903    0.85824   1.00
C5       0.06587    0.27889    0.82453   1.00
H2       0.12459    0.29851    0.81507   1.00
C5       0.22667    0.12536    0.99017   1.00
H2       0.23604    0.10332    1.01215   1.00
H2       0.25148    0.12928    0.96952   1.00
C5       0.19020    0.11135    0.96800   1.00
C5       0.19687    0.06981    0.95225   1.00
H2       0.26659    0.43693    1.19286   1.00
C5       0.32937    0.44978    1.18912   1.00
H2       0.28449    0.44980    1.14323   1.00
C5       0.45710    0.14660    1.03337   1.00
H2       0.46040    0.20434    1.00551   1.00
H2       0.43396    0.20318    1.05293   1.00
C5       0.04544    0.31380    0.80497   1.00
H2       0.07049    0.25477    0.80211   1.00
H2       0.04693    0.26747    0.84937   1.00
H2       0.22587    0.06863    0.93602   1.00
H2       0.19747    0.04830    0.97761   1.00
C5       0.16354    0.05891    0.92417   1.00
H2       0.34773    0.42480    1.20116   1.00
H2       0.34661    0.46592    1.16571   1.00
H2       0.32173    0.47080    1.21374   1.00
H2       0.43922    0.12301    1.01820   1.00
H2       0.48844    0.14559    1.02229   1.00
H2       0.45677    0.14136    1.06621   1.00
H2       0.06797    0.33224    0.78889   1.00
H2       0.02275    0.30267    0.78336   1.00
H2       0.03049    0.33233    0.82819   1.00
H2       0.17217    0.06693    0.89307   1.00
H2       0.15775    0.02621    0.92598   1.00
H2       0.13601    0.07553    0.93266   1.00
C5       0.37569    0.63218    0.76659   1.00
H2       0.36939    0.64745    0.73872   1.00
H2       0.39922    0.61090    0.75991   1.00
C5       0.38972    0.66194    0.79718   1.00
C5       0.43332    0.67123    0.79159   1.00
H2       0.38515    0.65015    0.82710   1.00
O3       0.25286    0.48000    0.82076   1.00
C4       0.24977    0.52100    0.74965   1.00
C3c      0.28463    0.54243    0.74756   1.00
H1       0.31222    0.52725    0.74579   1.00
C3d      0.21409    0.54135    0.75137   1.00
C3       0.28458    0.58354    0.74827   1.00
O2       0.31930    0.60248    0.74133   1.00
C3       0.21398    0.58227    0.75284   1.00
H1       0.18600    0.59657    0.75556   1.00
C2       0.24899    0.60439    0.75118   1.00
C5       0.21645    0.47879    0.84000   1.00
H2       0.20719    0.44838    0.84689   1.00
H2       0.19318    0.49266    0.82192   1.00
C5       0.22060    0.50129    0.87815   1.00
H2       0.23091    0.53137    0.87133   1.00
H2       0.24364    0.48698    0.89610   1.00
C5       0.18162    0.50262    0.90044   1.00
H2       0.17101    0.47268    0.90710   1.00
H2       0.15896    0.51811    0.88309   1.00
C5       0.18689    0.52445    0.93935   1.00
C5       0.16401    0.51105    0.71968   1.00
C5       0.33817    0.61070    0.77709   1.00
H2       0.18406    0.49088    0.70405   1.00
H2       0.15871    0.53712    0.70091   1.00
H2       0.34503    0.58300    0.79277   1.00
H2       0.31983    0.62895    0.79700   1.00
H2       0.37385    0.69030    0.79424   1.00
H2       0.13054    0.44247    0.68379   1.00
H2       0.11063    0.48763    0.66435   1.00
C2       0.24828    0.39605    0.75205   1.00
C3       0.24880    0.41597    0.71599   1.00
O2       0.23912    0.39674    0.68198   1.00
C3       0.25021    0.41826    0.78681   1.00
H1       0.25088    0.40385    0.81485   1.00
C3a      0.25019    0.45713    0.71545   1.00
H1       0.24832    0.47202    0.68769   1.00
C3b      0.25032    0.45922    0.78619   1.00
C4       0.25023    0.47900    0.75035   1.00
O3       0.17919    0.52167    0.75645   1.00
C5       0.27314    0.38720    0.66084   1.00
H2       0.29013    0.41391    0.65310   1.00
C5       0.26002    0.36674    0.62358   1.00
H2       0.29229    0.36726    0.67797   1.00
H2       0.25036    0.38932    0.60230   1.00
H2       0.23374    0.34907    0.63091   1.00
C5       0.29201    0.34082    0.60562   1.00
H2       0.31903    0.35824    0.60137   1.00
C5       0.27889    0.32453    0.56587   1.00
H2       0.29851    0.31507    0.62459   1.00
C5       0.12536    0.49017    0.72667   1.00
H2       0.10332    0.51215    0.73604   1.00
H2       0.12928    0.46952    0.75148   1.00
C5       0.11135    0.46800    0.69020   1.00
C5       0.06981    0.45225    0.69687   1.00
H2       0.43693    0.69286    0.76659   1.00
C5       0.44978    0.68912    0.82937   1.00
H2       0.44980    0.64323    0.78449   1.00
C5       0.14660    0.53337    0.95710   1.00
H2       0.20434    0.50551    0.96040   1.00
H2       0.20318    0.55293    0.93396   1.00
C5       0.31380    0.30497    0.54544   1.00
H2       0.25477    0.30211    0.57049   1.00
H2       0.26747    0.34937    0.54693   1.00
H2       0.06863    0.43602    0.72587   1.00
H2       0.04830    0.47761    0.69747   1.00
C5       0.05891    0.42417    0.66354   1.00
H2       0.42480    0.70116    0.84773   1.00
H2       0.46592    0.66571    0.84661   1.00
H2       0.47080    0.71374    0.82173   1.00
H2       0.12301    0.51820    0.93922   1.00
H2       0.14559    0.52229    0.98844   1.00
H2       0.14136    0.56621    0.95677   1.00
H2       0.33224    0.28889    0.56797   1.00
H2       0.30267    0.28336    0.52275   1.00
H2       0.33233    0.32819    0.53049   1.00
H2       0.06693    0.39307    0.67217   1.00
H2       0.02621    0.42598    0.65775   1.00
H2       0.07553    0.43266    0.63601   1.00
C5       -0.13218   0.26659    0.62431   1.00
H2       -0.14745   0.23872    0.63061   1.00
H2       -0.11090   0.25991    0.60078   1.00
C5       -0.16194   0.29718    0.61028   1.00
C5       -0.17123   0.29159    0.56668   1.00
H2       -0.15015   0.32710    0.61485   1.00
O3       0.02000    0.32076    0.74714   1.00
C4       -0.02100   0.24965    0.75023   1.00
C3c      -0.04243   0.24756    0.71537   1.00
H1       -0.02725   0.24579    0.68778   1.00
C3d      -0.04135   0.25137    0.78591   1.00
C3       -0.08354   0.24827    0.71542   1.00
O2       -0.10248   0.24133    0.68070   1.00
C3       -0.08227   0.25284    0.78602   1.00
H1       -0.09657   0.25556    0.81400   1.00
C2       -0.10439   0.25118    0.75101   1.00
C5       0.02121    0.34000    0.78355   1.00
H2       0.05162    0.34689    0.79281   1.00
H2       0.00734    0.32192    0.80682   1.00
C5       -0.00129   0.37815    0.77940   1.00
H2       -0.03137   0.37133    0.76909   1.00
H2       0.01302    0.39610    0.75636   1.00
C5       -0.00262   0.40044    0.81838   1.00
H2       0.02732    0.40710    0.82899   1.00
H2       -0.01811   0.38309    0.84104   1.00
C5       -0.02445   0.43935    0.81311   1.00
C5       -0.01105   0.21968    0.83599   1.00
C5       -0.11070   0.27709    0.66183   1.00
H2       0.00912    0.20405    0.81594   1.00
H2       -0.03712   0.20091    0.84129   1.00
H2       -0.08300   0.29277    0.65497   1.00
H2       -0.12895   0.29700    0.68017   1.00
H2       -0.19030   0.29424    0.62615   1.00
H2       0.05753    0.18379    0.86946   1.00
H2       0.01237    0.16435    0.88937   1.00
C2       0.10395    0.25205    0.75172   1.00
C3       0.08403    0.21599    0.75120   1.00
O2       0.10326    0.18198    0.76088   1.00
C3       0.08174    0.28681    0.74979   1.00
H1       0.09615    0.31485    0.74912   1.00
C3a      0.04287    0.21545    0.74981   1.00
H1       0.02798    0.18769    0.75168   1.00
C3b      0.04078    0.28619    0.74968   1.00
C4       0.02100    0.25035    0.74977   1.00
O3       -0.02167   0.25645    0.82081   1.00
C5       0.11280    0.16084    0.72686   1.00
H2       0.08609    0.15310    0.70987   1.00
C5       0.13326    0.12358    0.73998   1.00
H2       0.13274    0.17797    0.70771   1.00
H2       0.11068    0.10230    0.74964   1.00
H2       0.15093    0.13091    0.76626   1.00
C5       0.15918    0.10562    0.70799   1.00
H2       0.14176    0.10137    0.68097   1.00
C5       0.17547    0.06587    0.72111   1.00
H2       0.18493    0.12459    0.70149   1.00
C5       0.00983    0.22667    0.87464   1.00
H2       -0.01215   0.23604    0.89668   1.00
H2       0.03048    0.25148    0.87072   1.00
C5       0.03200    0.19020    0.88865   1.00
C5       0.04775    0.19687    0.93019   1.00
H2       -0.19286   0.26659    0.56307   1.00
C5       -0.18912   0.32937    0.55022   1.00
H2       -0.14323   0.28449    0.55020   1.00
C5       -0.03337   0.45710    0.85340   1.00
H2       -0.00551   0.46040    0.79566   1.00
H2       -0.05293   0.43396    0.79682   1.00
C5       0.19503    0.04544    0.68620   1.00
H2       0.19789    0.07049    0.74523   1.00
H2       0.15063    0.04693    0.73253   1.00
H2       0.06398    0.22587    0.93137   1.00
H2       0.02239    0.19747    0.95170   1.00
C5       0.07583    0.16354    0.94109   1.00
H2       -0.20116   0.34773    0.57520   1.00
H2       -0.16571   0.34661    0.53408   1.00
H2       -0.21374   0.32173    0.52920   1.00
H2       -0.01820   0.43922    0.87699   1.00
H2       -0.02229   0.48844    0.85441   1.00
H2       -0.06621   0.45677    0.85864   1.00
H2       0.21111    0.06797    0.66776   1.00
H2       0.21664    0.02275    0.69733   1.00
H2       0.17181    0.03049    0.66767   1.00
H2       0.10693    0.17217    0.93307   1.00
H2       0.07402    0.15775    0.97379   1.00
H2       0.06734    0.13601    0.92447   1.00
C5       0.63218    0.26659    0.87569   1.00
H2       0.64745    0.23872    0.86939   1.00
H2       0.61090    0.25991    0.89922   1.00
C5       0.66194    0.29718    0.88972   1.00
C5       0.67123    0.29159    0.93332   1.00
H2       0.65015    0.32710    0.88515   1.00
O3       0.48000    0.32076    0.75286   1.00
C4       0.52100    0.24965    0.74977   1.00
C3c      0.54243    0.24756    0.78463   1.00
H1       0.52725    0.24579    0.81222   1.00
C3d      0.54135    0.25137    0.71409   1.00
C3       0.58354    0.24827    0.78458   1.00
O2       0.60248    0.24133    0.81930   1.00
C3       0.58227    0.25284    0.71398   1.00
H1       0.59657    0.25556    0.68600   1.00
C2       0.60439    0.25118    0.74899   1.00
C5       0.47879    0.34000    0.71645   1.00
H2       0.44838    0.34689    0.70719   1.00
H2       0.49266    0.32192    0.69318   1.00
C5       0.50129    0.37815    0.72060   1.00
H2       0.53137    0.37133    0.73091   1.00
H2       0.48698    0.39610    0.74364   1.00
C5       0.50262    0.40044    0.68162   1.00
H2       0.47268    0.40710    0.67101   1.00
H2       0.51811    0.38309    0.65896   1.00
C5       0.52445    0.43935    0.68689   1.00
C5       0.51105    0.21968    0.66401   1.00
C5       0.61070    0.27709    0.83817   1.00
H2       0.49088    0.20405    0.68406   1.00
H2       0.53712    0.20091    0.65871   1.00
H2       0.58300    0.29277    0.84503   1.00
H2       0.62895    0.29700    0.81983   1.00
H2       0.69030    0.29424    0.87385   1.00
H2       0.44247    0.18379    0.63054   1.00
H2       0.48763    0.16435    0.61063   1.00
C2       0.39605    0.25205    0.74828   1.00
C3       0.41597    0.21599    0.74880   1.00
O2       0.39674    0.18198    0.73912   1.00
C3       0.41826    0.28681    0.75021   1.00
H1       0.40385    0.31485    0.75088   1.00
C3a      0.45713    0.21545    0.75019   1.00
H1       0.47202    0.18769    0.74832   1.00
C3b      0.45922    0.28619    0.75032   1.00
C4       0.47900    0.25035    0.75023   1.00
O3       0.52167    0.25645    0.67919   1.00
C5       0.38720    0.16084    0.77314   1.00
H2       0.41391    0.15310    0.79013   1.00
C5       0.36674    0.12358    0.76002   1.00
H2       0.36726    0.17797    0.79229   1.00
H2       0.38932    0.10230    0.75036   1.00
H2       0.34907    0.13091    0.73374   1.00
C5       0.34082    0.10562    0.79201   1.00
H2       0.35824    0.10137    0.81903   1.00
C5       0.32453    0.06587    0.77889   1.00
H2       0.31507    0.12459    0.79851   1.00
C5       0.49017    0.22667    0.62536   1.00
H2       0.51215    0.23604    0.60332   1.00
H2       0.46952    0.25148    0.62928   1.00
C5       0.46800    0.19020    0.61135   1.00
C5       0.45225    0.19687    0.56981   1.00
H2       0.69286    0.26659    0.93693   1.00
C5       0.68912    0.32937    0.94978   1.00
H2       0.64323    0.28449    0.94980   1.00
C5       0.53337    0.45710    0.64660   1.00
H2       0.50551    0.46040    0.70434   1.00
H2       0.55293    0.43396    0.70318   1.00
C5       0.30497    0.04544    0.81380   1.00
H2       0.30211    0.07049    0.75477   1.00
H2       0.34937    0.04693    0.76747   1.00
H2       0.43602    0.22587    0.56863   1.00
H2       0.47761    0.19747    0.54830   1.00
C5       0.42417    0.16354    0.55891   1.00
H2       0.70116    0.34773    0.92480   1.00
H2       0.66571    0.34661    0.96592   1.00
H2       0.71374    0.32173    0.97080   1.00
H2       0.51820    0.43922    0.62301   1.00
H2       0.52229    0.48844    0.64559   1.00
H2       0.56621    0.45677    0.64136   1.00
H2       0.28889    0.06797    0.83224   1.00
H2       0.28336    0.02275    0.80267   1.00
H2       0.32819    0.03049    0.83233   1.00
H2       0.39307    0.17217    0.56693   1.00
H2       0.42598    0.15775    0.52621   1.00
H2       0.43266    0.13601    0.57553   1.00
C5       0.12431    -0.13218   0.76659   1.00
H2       0.13061    -0.14745   0.73872   1.00
H2       0.10078    -0.11090   0.75991   1.00
C5       0.11028    -0.16194   0.79718   1.00
C5       0.06668    -0.17123   0.79159   1.00
H2       0.11485    -0.15015   0.82710   1.00
O3       0.24714    0.02000    0.82076   1.00
C4       0.25023    -0.02100   0.74965   1.00
C3c      0.21537    -0.04243   0.74756   1.00
H1       0.18778    -0.02725   0.74579   1.00
C3d      0.28591    -0.04135   0.75137   1.00
C3       0.21542    -0.08354   0.74827   1.00
O2       0.18070    -0.10248   0.74133   1.00
C3       0.28602    -0.08227   0.75284   1.00
H1       0.31400    -0.09657   0.75556   1.00
C2       0.25101    -0.10439   0.75118   1.00
C5       0.28355    0.02121    0.84000   1.00
H2       0.29281    0.05162    0.84689   1.00
H2       0.30682    0.00734    0.82192   1.00
C5       0.27940    -0.00129   0.87815   1.00
H2       0.26909    -0.03137   0.87133   1.00
H2       0.25636    0.01302    0.89610   1.00
C5       0.31838    -0.00262   0.90044   1.00
H2       0.32899    0.02732    0.90710   1.00
H2       0.34104    -0.01811   0.88309   1.00
C5       0.31311    -0.02445   0.93935   1.00
C5       0.33599    -0.01105   0.71968   1.00
C5       0.16183    -0.11070   0.77709   1.00
H2       0.31594    0.00912    0.70405   1.00
H2       0.34129    -0.03712   0.70091   1.00
H2       0.15497    -0.08300   0.79277   1.00
H2       0.18017    -0.12895   0.79700   1.00
H2       0.12615    -0.19030   0.79424   1.00
H2       0.36946    0.05753    0.68379   1.00
H2       0.38937    0.01237    0.66435   1.00
C2       0.25172    0.10395    0.75205   1.00
C3       0.25120    0.08403    0.71599   1.00
O2       0.26088    0.10326    0.68198   1.00
C3       0.24979    0.08174    0.78681   1.00
H1       0.24912    0.09615    0.81485   1.00
C3a      0.24981    0.04287    0.71545   1.00
H1       0.25168    0.02798    0.68769   1.00
C3b      0.24968    0.04078    0.78619   1.00
C4       0.24977    0.02100    0.75035   1.00
O3       0.32081    -0.02167   0.75645   1.00
C5       0.22686    0.11280    0.66084   1.00
H2       0.20987    0.08609    0.65310   1.00
C5       0.23998    0.13326    0.62358   1.00
H2       0.20771    0.13274    0.67797   1.00
H2       0.24964    0.11068    0.60230   1.00
H2       0.26626    0.15093    0.63091   1.00
C5       0.20799    0.15918    0.60562   1.00
H2       0.18097    0.14176    0.60137   1.00
C5       0.22111    0.17547    0.56587   1.00
H2       0.20149    0.18493    0.62459   1.00
C5       0.37464    0.00983    0.72667   1.00
H2       0.39668    -0.01215   0.73604   1.00
H2       0.37072    0.03048    0.75148   1.00
C5       0.38865    0.03200    0.69020   1.00
C5       0.43019    0.04775    0.69687   1.00
H2       0.06307    -0.19286   0.76659   1.00
C5       0.05022    -0.18912   0.82937   1.00
H2       0.05020    -0.14323   0.78449   1.00
C5       0.35340    -0.03337   0.95710   1.00
H2       0.29566    -0.00551   0.96040   1.00
H2       0.29682    -0.05293   0.93396   1.00
C5       0.18620    0.19503    0.54544   1.00
H2       0.24523    0.19789    0.57049   1.00
H2       0.23253    0.15063    0.54693   1.00
H2       0.43137    0.06398    0.72587   1.00
H2       0.45170    0.02239    0.69747   1.00
C5       0.44109    0.07583    0.66354   1.00
H2       0.07520    -0.20116   0.84773   1.00
H2       0.03408    -0.16571   0.84661   1.00
H2       0.02920    -0.21374   0.82173   1.00
H2       0.37699    -0.01820   0.93922   1.00
H2       0.35441    -0.02229   0.98844   1.00
H2       0.35864    -0.06621   0.95677   1.00
H2       0.16776    0.21111    0.56797   1.00
H2       0.19733    0.21664    0.52275   1.00
H2       0.16767    0.17181    0.53049   1.00
H2       0.43307    0.10693    0.67217   1.00
H2       0.47379    0.07402    0.65775   1.00
H2       0.42447    0.06734    0.63601   1.00
C5       0.26659    0.12431    0.36782   1.00
H2       0.23872    0.13061    0.35255   1.00
H2       0.25991    0.10078    0.38910   1.00
C5       0.29718    0.11028    0.33806   1.00
C5       0.29159    0.06668    0.32877   1.00
H2       0.32710    0.11485    0.34985   1.00
O3       0.32076    0.24714    0.52000   1.00
C4       0.24965    0.25023    0.47900   1.00
C3c      0.24756    0.21537    0.45757   1.00
H1       0.24579    0.18778    0.47275   1.00
C3d      0.25137    0.28591    0.45865   1.00
C3       0.24827    0.21542    0.41646   1.00
O2       0.24133    0.18070    0.39752   1.00
C3       0.25284    0.28602    0.41773   1.00
H1       0.25556    0.31400    0.40343   1.00
C2       0.25118    0.25101    0.39561   1.00
C5       0.34000    0.28355    0.52121   1.00
H2       0.34689    0.29281    0.55162   1.00
H2       0.32192    0.30682    0.50734   1.00
C5       0.37815    0.27940    0.49871   1.00
H2       0.37133    0.26909    0.46863   1.00
H2       0.39610    0.25636    0.51302   1.00
C5       0.40044    0.31838    0.49738   1.00
H2       0.40710    0.32899    0.52732   1.00
H2       0.38309    0.34104    0.48189   1.00
C5       0.43935    0.31311    0.47555   1.00
C5       0.21968    0.33599    0.48895   1.00
C5       0.27709    0.16183    0.38930   1.00
H2       0.20405    0.31594    0.50912   1.00
H2       0.20091    0.34129    0.46288   1.00
H2       0.29277    0.15497    0.41700   1.00
H2       0.29700    0.18017    0.37105   1.00
H2       0.29424    0.12615    0.30970   1.00
H2       0.18379    0.36946    0.55753   1.00
H2       0.16435    0.38937    0.51237   1.00
C2       0.25205    0.25172    0.60395   1.00
C3       0.21599    0.25120    0.58403   1.00
O2       0.18198    0.26088    0.60326   1.00
C3       0.28681    0.24979    0.58174   1.00
H1       0.31485    0.24912    0.59615   1.00
C3a      0.21545    0.24981    0.54287   1.00
H1       0.18769    0.25168    0.52798   1.00
C3b      0.28619    0.24968    0.54078   1.00
C4       0.25035    0.24977    0.52100   1.00
O3       0.25645    0.32081    0.47833   1.00
C5       0.16084    0.22686    0.61280   1.00
H2       0.15310    0.20987    0.58609   1.00
C5       0.12358    0.23998    0.63326   1.00
H2       0.17797    0.20771    0.63274   1.00
H2       0.10230    0.24964    0.61068   1.00
H2       0.13091    0.26626    0.65093   1.00
C5       0.10562    0.20799    0.65918   1.00
H2       0.10137    0.18097    0.64176   1.00
C5       0.06587    0.22111    0.67547   1.00
H2       0.12459    0.20149    0.68493   1.00
C5       0.22667    0.37464    0.50983   1.00
H2       0.23604    0.39668    0.48785   1.00
H2       0.25148    0.37072    0.53048   1.00
C5       0.19020    0.38865    0.53200   1.00
C5       0.19687    0.43019    0.54775   1.00
H2       0.26659    0.06307    0.30714   1.00
C5       0.32937    0.05022    0.31088   1.00
H2       0.28449    0.05020    0.35677   1.00
C5       0.45710    0.35340    0.46663   1.00
H2       0.46040    0.29566    0.49449   1.00
H2       0.43396    0.29682    0.44707   1.00
C5       0.04544    0.18620    0.69503   1.00
H2       0.07049    0.24523    0.69789   1.00
H2       0.04693    0.23253    0.65063   1.00
H2       0.22587    0.43137    0.56398   1.00
H2       0.19747    0.45170    0.52239   1.00
C5       0.16354    0.44109    0.57583   1.00
H2       0.34773    0.07520    0.29884   1.00
H2       0.34661    0.03408    0.33429   1.00
H2       0.32173    0.02920    0.28626   1.00
H2       0.43922    0.37699    0.48180   1.00
H2       0.48844    0.35441    0.47771   1.00
H2       0.45677    0.35864    0.43379   1.00
H2       0.06797    0.16776    0.71111   1.00
H2       0.02275    0.19733    0.71664   1.00
H2       0.03049    0.16767    0.67181   1.00
H2       0.17217    0.43307    0.60693   1.00
H2       0.15775    0.47379    0.57402   1.00
H2       0.13601    0.42447    0.56734   1.00
C5       0.26659    0.87569    0.63218   1.00
H2       0.23872    0.86939    0.64745   1.00
H2       0.25991    0.89922    0.61090   1.00
C5       0.29718    0.88972    0.66194   1.00
C5       0.29159    0.93332    0.67123   1.00
H2       0.32710    0.88515    0.65015   1.00
O3       0.32076    0.75286    0.48000   1.00
C4       0.24965    0.74977    0.52100   1.00
C3c      0.24756    0.78463    0.54243   1.00
H1       0.24579    0.81222    0.52725   1.00
C3d      0.25137    0.71409    0.54135   1.00
C3       0.24827    0.78458    0.58354   1.00
O2       0.24133    0.81930    0.60248   1.00
C3       0.25284    0.71398    0.58227   1.00
H1       0.25556    0.68600    0.59657   1.00
C2       0.25118    0.74899    0.60439   1.00
C5       0.34000    0.71645    0.47879   1.00
H2       0.34689    0.70719    0.44838   1.00
H2       0.32192    0.69318    0.49266   1.00
C5       0.37815    0.72060    0.50129   1.00
H2       0.37133    0.73091    0.53137   1.00
H2       0.39610    0.74364    0.48698   1.00
C5       0.40044    0.68162    0.50262   1.00
H2       0.40710    0.67101    0.47268   1.00
H2       0.38309    0.65896    0.51811   1.00
C5       0.43935    0.68689    0.52445   1.00
C5       0.21968    0.66401    0.51105   1.00
C5       0.27709    0.83817    0.61070   1.00
H2       0.20405    0.68406    0.49088   1.00
H2       0.20091    0.65871    0.53712   1.00
H2       0.29277    0.84503    0.58300   1.00
H2       0.29700    0.81983    0.62895   1.00
H2       0.29424    0.87385    0.69030   1.00
H2       0.18379    0.63054    0.44247   1.00
H2       0.16435    0.61063    0.48763   1.00
C2       0.25205    0.74828    0.39605   1.00
C3       0.21599    0.74880    0.41597   1.00
O2       0.18198    0.73912    0.39674   1.00
C3       0.28681    0.75021    0.41826   1.00
H1       0.31485    0.75088    0.40385   1.00
C3a      0.21545    0.75019    0.45713   1.00
H1       0.18769    0.74832    0.47202   1.00
C3b      0.28619    0.75032    0.45922   1.00
C4       0.25035    0.75023    0.47900   1.00
O3       0.25645    0.67919    0.52167   1.00
C5       0.16084    0.77314    0.38720   1.00
H2       0.15310    0.79013    0.41391   1.00
C5       0.12358    0.76002    0.36674   1.00
H2       0.17797    0.79229    0.36726   1.00
H2       0.10230    0.75036    0.38932   1.00
H2       0.13091    0.73374    0.34907   1.00
C5       0.10562    0.79201    0.34082   1.00
H2       0.10137    0.81903    0.35824   1.00
C5       0.06587    0.77889    0.32453   1.00
H2       0.12459    0.79851    0.31507   1.00
C5       0.22667    0.62536    0.49017   1.00
H2       0.23604    0.60332    0.51215   1.00
H2       0.25148    0.62928    0.46952   1.00
C5       0.19020    0.61135    0.46800   1.00
C5       0.19687    0.56981    0.45225   1.00
H2       0.26659    0.93693    0.69286   1.00
C5       0.32937    0.94978    0.68912   1.00
H2       0.28449    0.94980    0.64323   1.00
C5       0.45710    0.64660    0.53337   1.00
H2       0.46040    0.70434    0.50551   1.00
H2       0.43396    0.70318    0.55293   1.00
C5       0.04544    0.81380    0.30497   1.00
H2       0.07049    0.75477    0.30211   1.00
H2       0.04693    0.76747    0.34937   1.00
H2       0.22587    0.56863    0.43602   1.00
H2       0.19747    0.54830    0.47761   1.00
C5       0.16354    0.55891    0.42417   1.00
H2       0.34773    0.92480    0.70116   1.00
H2       0.34661    0.96592    0.66571   1.00
H2       0.32173    0.97080    0.71374   1.00
H2       0.43922    0.62301    0.51820   1.00
H2       0.48844    0.64559    0.52229   1.00
H2       0.45677    0.64136    0.56621   1.00
H2       0.06797    0.83224    0.28889   1.00
H2       0.02275    0.80267    0.28336   1.00
H2       0.03049    0.83233    0.32819   1.00
H2       0.17217    0.56693    0.39307   1.00
H2       0.15775    0.52621    0.42598   1.00
H2       0.13601    0.57553    0.43266   1.00
C5       0.37569    1.13218    0.26659   1.00
H2       0.36939    1.14745    0.23872   1.00
H2       0.39922    1.11090    0.25991   1.00
C5       0.38972    1.16194    0.29718   1.00
C5       0.43332    1.17123    0.29159   1.00
H2       0.38515    1.15015    0.32710   1.00
O3       0.25286    0.98000    0.32076   1.00
C4       0.24977    1.02100    0.24965   1.00
C3c      0.28463    1.04243    0.24756   1.00
H1       0.31222    1.02725    0.24579   1.00
C3d      0.21409    1.04135    0.25137   1.00
C3       0.28458    1.08354    0.24827   1.00
O2       0.31930    1.10248    0.24133   1.00
C3       0.21398    1.08227    0.25284   1.00
H1       0.18600    1.09657    0.25556   1.00
C2       0.24899    1.10439    0.25118   1.00
C5       0.21645    0.97879    0.34000   1.00
H2       0.20719    0.94838    0.34689   1.00
H2       0.19318    0.99266    0.32192   1.00
C5       0.22060    1.00129    0.37815   1.00
H2       0.23091    1.03137    0.37133   1.00
H2       0.24364    0.98698    0.39610   1.00
C5       0.18162    1.00262    0.40044   1.00
H2       0.17101    0.97268    0.40710   1.00
H2       0.15896    1.01811    0.38309   1.00
C5       0.18689    1.02445    0.43935   1.00
C5       0.16401    1.01105    0.21968   1.00
C5       0.33817    1.11070    0.27709   1.00
H2       0.18406    0.99088    0.20405   1.00
H2       0.15871    1.03712    0.20091   1.00
H2       0.34503    1.08300    0.29277   1.00
H2       0.31983    1.12895    0.29700   1.00
H2       0.37385    1.19030    0.29424   1.00
H2       0.13054    0.94247    0.18379   1.00
H2       0.11063    0.98763    0.16435   1.00
C2       0.24828    0.89605    0.25205   1.00
C3       0.24880    0.91597    0.21599   1.00
O2       0.23912    0.89674    0.18198   1.00
C3       0.25021    0.91826    0.28681   1.00
H1       0.25088    0.90385    0.31485   1.00
C3a      0.25019    0.95713    0.21545   1.00
H1       0.24832    0.97202    0.18769   1.00
C3b      0.25032    0.95922    0.28619   1.00
C4       0.25023    0.97900    0.25035   1.00
O3       0.17919    1.02167    0.25645   1.00
C5       0.27314    0.88720    0.16084   1.00
H2       0.29013    0.91391    0.15310   1.00
C5       0.26002    0.86674    0.12358   1.00
H2       0.29229    0.86726    0.17797   1.00
H2       0.25036    0.88932    0.10230   1.00
H2       0.23374    0.84907    0.13091   1.00
C5       0.29201    0.84082    0.10562   1.00
H2       0.31903    0.85824    0.10137   1.00
C5       0.27889    0.82453    0.06587   1.00
H2       0.29851    0.81507    0.12459   1.00
C5       0.12536    0.99017    0.22667   1.00
H2       0.10332    1.01215    0.23604   1.00
H2       0.12928    0.96952    0.25148   1.00
C5       0.11135    0.96800    0.19020   1.00
C5       0.06981    0.95225    0.19687   1.00
H2       0.43693    1.19286    0.26659   1.00
C5       0.44978    1.18912    0.32937   1.00
H2       0.44980    1.14323    0.28449   1.00
C5       0.14660    1.03337    0.45710   1.00
H2       0.20434    1.00551    0.46040   1.00
H2       0.20318    1.05293    0.43396   1.00
C5       0.31380    0.80497    0.04544   1.00
H2       0.25477    0.80211    0.07049   1.00
H2       0.26747    0.84937    0.04693   1.00
H2       0.06863    0.93602    0.22587   1.00
H2       0.04830    0.97761    0.19747   1.00
C5       0.05891    0.92417    0.16354   1.00
H2       0.42480    1.20116    0.34773   1.00
H2       0.46592    1.16571    0.34661   1.00
H2       0.47080    1.21374    0.32173   1.00
H2       0.12301    1.01820    0.43922   1.00
H2       0.14559    1.02229    0.48844   1.00
H2       0.14136    1.06621    0.45677   1.00
H2       0.33224    0.78889    0.06797   1.00
H2       0.30267    0.78336    0.02275   1.00
H2       0.33233    0.82819    0.03049   1.00
H2       0.06693    0.89307    0.17217   1.00
H2       0.02621    0.92598    0.15775   1.00
H2       0.07553    0.93266    0.13601   1.00
C5       -0.13218   0.76659    0.12431   1.00
H2       -0.14745   0.73872    0.13061   1.00
H2       -0.11090   0.75991    0.10078   1.00
C5       -0.16194   0.79718    0.11028   1.00
C5       -0.17123   0.79159    0.06668   1.00
H2       -0.15015   0.82710    0.11485   1.00
O3       0.02000    0.82076    0.24714   1.00
C4       -0.02100   0.74965    0.25023   1.00
C3c      -0.04243   0.74756    0.21537   1.00
H1       -0.02725   0.74579    0.18778   1.00
C3d      -0.04135   0.75137    0.28591   1.00
C3       -0.08354   0.74827    0.21542   1.00
O2       -0.10248   0.74133    0.18070   1.00
C3       -0.08227   0.75284    0.28602   1.00
H1       -0.09657   0.75556    0.31400   1.00
C2       -0.10439   0.75118    0.25101   1.00
C5       0.02121    0.84000    0.28355   1.00
H2       0.05162    0.84689    0.29281   1.00
H2       0.00734    0.82192    0.30682   1.00
C5       -0.00129   0.87815    0.27940   1.00
H2       -0.03137   0.87133    0.26909   1.00
H2       0.01302    0.89610    0.25636   1.00
C5       -0.00262   0.90044    0.31838   1.00
H2       0.02732    0.90710    0.32899   1.00
H2       -0.01811   0.88309    0.34104   1.00
C5       -0.02445   0.93935    0.31311   1.00
C5       -0.01105   0.71968    0.33599   1.00
C5       -0.11070   0.77709    0.16183   1.00
H2       0.00912    0.70405    0.31594   1.00
H2       -0.03712   0.70091    0.34129   1.00
H2       -0.08300   0.79277    0.15497   1.00
H2       -0.12895   0.79700    0.18017   1.00
H2       -0.19030   0.79424    0.12615   1.00
H2       0.05753    0.68379    0.36946   1.00
H2       0.01237    0.66435    0.38937   1.00
C2       0.10395    0.75205    0.25172   1.00
C3       0.08403    0.71599    0.25120   1.00
O2       0.10326    0.68198    0.26088   1.00
C3       0.08174    0.78681    0.24979   1.00
H1       0.09615    0.81485    0.24912   1.00
C3a      0.04287    0.71545    0.24981   1.00
H1       0.02798    0.68769    0.25168   1.00
C3b      0.04078    0.78619    0.24968   1.00
C4       0.02100    0.75035    0.24977   1.00
O3       -0.02167   0.75645    0.32081   1.00
C5       0.11280    0.66084    0.22686   1.00
H2       0.08609    0.65310    0.20987   1.00
C5       0.13326    0.62358    0.23998   1.00
H2       0.13274    0.67797    0.20771   1.00
H2       0.11068    0.60230    0.24964   1.00
H2       0.15093    0.63091    0.26626   1.00
C5       0.15918    0.60562    0.20799   1.00
H2       0.14176    0.60137    0.18097   1.00
C5       0.17547    0.56587    0.22111   1.00
H2       0.18493    0.62459    0.20149   1.00
C5       0.00983    0.72667    0.37464   1.00
H2       -0.01215   0.73604    0.39668   1.00
H2       0.03048    0.75148    0.37072   1.00
C5       0.03200    0.69020    0.38865   1.00
C5       0.04775    0.69687    0.43019   1.00
H2       -0.19286   0.76659    0.06307   1.00
C5       -0.18912   0.82937    0.05022   1.00
H2       -0.14323   0.78449    0.05020   1.00
C5       -0.03337   0.95710    0.35340   1.00
H2       -0.00551   0.96040    0.29566   1.00
H2       -0.05293   0.93396    0.29682   1.00
C5       0.19503    0.54544    0.18620   1.00
H2       0.19789    0.57049    0.24523   1.00
H2       0.15063    0.54693    0.23253   1.00
H2       0.06398    0.72587    0.43137   1.00
H2       0.02239    0.69747    0.45170   1.00
C5       0.07583    0.66354    0.44109   1.00
H2       -0.20116   0.84773    0.07520   1.00
H2       -0.16571   0.84661    0.03408   1.00
H2       -0.21374   0.82173    0.02920   1.00
H2       -0.01820   0.93922    0.37699   1.00
H2       -0.02229   0.98844    0.35441   1.00
H2       -0.06621   0.95677    0.35864   1.00
H2       0.21111    0.56797    0.16776   1.00
H2       0.21664    0.52275    0.19733   1.00
H2       0.17181    0.53049    0.16767   1.00
H2       0.10693    0.67217    0.43307   1.00
H2       0.07402    0.65775    0.47379   1.00
H2       0.06734    0.63601    0.42447   1.00
C5       0.63218    0.76659    0.37569   1.00
H2       0.64745    0.73872    0.36939   1.00
H2       0.61090    0.75991    0.39922   1.00
C5       0.66194    0.79718    0.38972   1.00
C5       0.67123    0.79159    0.43332   1.00
H2       0.65015    0.82710    0.38515   1.00
O3       0.48000    0.82076    0.25286   1.00
C4       0.52100    0.74965    0.24977   1.00
C3c      0.54243    0.74756    0.28463   1.00
H1       0.52725    0.74579    0.31222   1.00
C3d      0.54135    0.75137    0.21409   1.00
C3       0.58354    0.74827    0.28458   1.00
O2       0.60248    0.74133    0.31930   1.00
C3       0.58227    0.75284    0.21398   1.00
H1       0.59657    0.75556    0.18600   1.00
C2       0.60439    0.75118    0.24899   1.00
C5       0.47879    0.84000    0.21645   1.00
H2       0.44838    0.84689    0.20719   1.00
H2       0.49266    0.82192    0.19318   1.00
C5       0.50129    0.87815    0.22060   1.00
H2       0.53137    0.87133    0.23091   1.00
H2       0.48698    0.89610    0.24364   1.00
C5       0.50262    0.90044    0.18162   1.00
H2       0.47268    0.90710    0.17101   1.00
H2       0.51811    0.88309    0.15896   1.00
C5       0.52445    0.93935    0.18689   1.00
C5       0.51105    0.71968    0.16401   1.00
C5       0.61070    0.77709    0.33817   1.00
H2       0.49088    0.70405    0.18406   1.00
H2       0.53712    0.70091    0.15871   1.00
H2       0.58300    0.79277    0.34503   1.00
H2       0.62895    0.79700    0.31983   1.00
H2       0.69030    0.79424    0.37385   1.00
H2       0.44247    0.68379    0.13054   1.00
H2       0.48763    0.66435    0.11063   1.00
C2       0.39605    0.75205    0.24828   1.00
C3       0.41597    0.71599    0.24880   1.00
O2       0.39674    0.68198    0.23912   1.00
C3       0.41826    0.78681    0.25021   1.00
H1       0.40385    0.81485    0.25088   1.00
C3a      0.45713    0.71545    0.25019   1.00
H1       0.47202    0.68769    0.24832   1.00
C3b      0.45922    0.78619    0.25032   1.00
C4       0.47900    0.75035    0.25023   1.00
O3       0.52167    0.75645    0.17919   1.00
C5       0.38720    0.66084    0.27314   1.00
H2       0.41391    0.65310    0.29013   1.00
C5       0.36674    0.62358    0.26002   1.00
H2       0.36726    0.67797    0.29229   1.00
H2       0.38932    0.60230    0.25036   1.00
H2       0.34907    0.63091    0.23374   1.00
C5       0.34082    0.60562    0.29201   1.00
H2       0.35824    0.60137    0.31903   1.00
C5       0.32453    0.56587    0.27889   1.00
H2       0.31507    0.62459    0.29851   1.00
C5       0.49017    0.72667    0.12536   1.00
H2       0.51215    0.73604    0.10332   1.00
H2       0.46952    0.75148    0.12928   1.00
C5       0.46800    0.69020    0.11135   1.00
C5       0.45225    0.69687    0.06981   1.00
H2       0.69286    0.76659    0.43693   1.00
C5       0.68912    0.82937    0.44978   1.00
H2       0.64323    0.78449    0.44980   1.00
C5       0.53337    0.95710    0.14660   1.00
H2       0.50551    0.96040    0.20434   1.00
H2       0.55293    0.93396    0.20318   1.00
C5       0.30497    0.54544    0.31380   1.00
H2       0.30211    0.57049    0.25477   1.00
H2       0.34937    0.54693    0.26747   1.00
H2       0.43602    0.72587    0.06863   1.00
H2       0.47761    0.69747    0.04830   1.00
C5       0.42417    0.66354    0.05891   1.00
H2       0.70116    0.84773    0.42480   1.00
H2       0.66571    0.84661    0.46592   1.00
H2       0.71374    0.82173    0.47080   1.00
H2       0.51820    0.93922    0.12301   1.00
H2       0.52229    0.98844    0.14559   1.00
H2       0.56621    0.95677    0.14136   1.00
H2       0.28889    0.56797    0.33224   1.00
H2       0.28336    0.52275    0.30267   1.00
H2       0.32819    0.53049    0.33233   1.00
H2       0.39307    0.67217    0.06693   1.00
H2       0.42598    0.65775    0.02621   1.00
H2       0.43266    0.63601    0.07553   1.00
C5       0.12431    0.36782    0.26659   1.00
H2       0.13061    0.35255    0.23872   1.00
H2       0.10078    0.38910    0.25991   1.00
C5       0.11028    0.33806    0.29718   1.00
C5       0.06668    0.32877    0.29159   1.00
H2       0.11485    0.34985    0.32710   1.00
O3       0.24714    0.52000    0.32076   1.00
C4       0.25023    0.47900    0.24965   1.00
C3c      0.21537    0.45757    0.24756   1.00
H1       0.18778    0.47275    0.24579   1.00
C3d      0.28591    0.45865    0.25137   1.00
C3       0.21542    0.41646    0.24827   1.00
O2       0.18070    0.39752    0.24133   1.00
C3       0.28602    0.41773    0.25284   1.00
H1       0.31400    0.40343    0.25556   1.00
C2       0.25101    0.39561    0.25118   1.00
C5       0.28355    0.52121    0.34000   1.00
H2       0.29281    0.55162    0.34689   1.00
H2       0.30682    0.50734    0.32192   1.00
C5       0.27940    0.49871    0.37815   1.00
H2       0.26909    0.46863    0.37133   1.00
H2       0.25636    0.51302    0.39610   1.00
C5       0.31838    0.49738    0.40044   1.00
H2       0.32899    0.52732    0.40710   1.00
H2       0.34104    0.48189    0.38309   1.00
C5       0.31311    0.47555    0.43935   1.00
C5       0.33599    0.48895    0.21968   1.00
C5       0.16183    0.38930    0.27709   1.00
H2       0.31594    0.50912    0.20405   1.00
H2       0.34129    0.46288    0.20091   1.00
H2       0.15497    0.41700    0.29277   1.00
H2       0.18017    0.37105    0.29700   1.00
H2       0.12615    0.30970    0.29424   1.00
H2       0.36946    0.55753    0.18379   1.00
H2       0.38937    0.51237    0.16435   1.00
C2       0.25172    0.60395    0.25205   1.00
C3       0.25120    0.58403    0.21599   1.00
O2       0.26088    0.60326    0.18198   1.00
C3       0.24979    0.58174    0.28681   1.00
H1       0.24912    0.59615    0.31485   1.00
C3a      0.24981    0.54287    0.21545   1.00
H1       0.25168    0.52798    0.18769   1.00
C3b      0.24968    0.54078    0.28619   1.00
C4       0.24977    0.52100    0.25035   1.00
O3       0.32081    0.47833    0.25645   1.00
C5       0.22686    0.61280    0.16084   1.00
H2       0.20987    0.58609    0.15310   1.00
C5       0.23998    0.63326    0.12358   1.00
H2       0.20771    0.63274    0.17797   1.00
H2       0.24964    0.61068    0.10230   1.00
H2       0.26626    0.65093    0.13091   1.00
C5       0.20799    0.65918    0.10562   1.00
H2       0.18097    0.64176    0.10137   1.00
C5       0.22111    0.67547    0.06587   1.00
H2       0.20149    0.68493    0.12459   1.00
C5       0.37464    0.50983    0.22667   1.00
H2       0.39668    0.48785    0.23604   1.00
H2       0.37072    0.53048    0.25148   1.00
C5       0.38865    0.53200    0.19020   1.00
C5       0.43019    0.54775    0.19687   1.00
H2       0.06307    0.30714    0.26659   1.00
C5       0.05022    0.31088    0.32937   1.00
H2       0.05020    0.35677    0.28449   1.00
C5       0.35340    0.46663    0.45710   1.00
H2       0.29566    0.49449    0.46040   1.00
H2       0.29682    0.44707    0.43396   1.00
C5       0.18620    0.69503    0.04544   1.00
H2       0.24523    0.69789    0.07049   1.00
H2       0.23253    0.65063    0.04693   1.00
H2       0.43137    0.56398    0.22587   1.00
H2       0.45170    0.52239    0.19747   1.00
C5       0.44109    0.57583    0.16354   1.00
H2       0.07520    0.29884    0.34773   1.00
H2       0.03408    0.33429    0.34661   1.00
H2       0.02920    0.28626    0.32173   1.00
H2       0.37699    0.48180    0.43922   1.00
H2       0.35441    0.47771    0.48844   1.00
H2       0.35864    0.43379    0.45677   1.00
H2       0.16776    0.71111    0.06797   1.00
H2       0.19733    0.71664    0.02275   1.00
H2       0.16767    0.67181    0.03049   1.00
H2       0.43307    0.60693    0.17217   1.00
H2       0.47379    0.57402    0.15775   1.00
H2       0.42447    0.56734    0.13601   1.00
C5       0.26659    0.62431    -0.13218   1.00
H2       0.23872    0.63061    -0.14745   1.00
H2       0.25991    0.60078    -0.11090   1.00
C5       0.29718    0.61028    -0.16194   1.00
C5       0.29159    0.56668    -0.17123   1.00
H2       0.32710    0.61485    -0.15015   1.00
O3       0.32076    0.74714    0.02000   1.00
C4       0.24965    0.75023    -0.02100   1.00
C3c      0.24756    0.71537    -0.04243   1.00
H1       0.24579    0.68778    -0.02725   1.00
C3d      0.25137    0.78591    -0.04135   1.00
C3       0.24827    0.71542    -0.08354   1.00
O2       0.24133    0.68070    -0.10248   1.00
C3       0.25284    0.78602    -0.08227   1.00
H1       0.25556    0.81400    -0.09657   1.00
C2       0.25118    0.75101    -0.10439   1.00
C5       0.34000    0.78355    0.02121   1.00
H2       0.34689    0.79281    0.05162   1.00
H2       0.32192    0.80682    0.00734   1.00
C5       0.37815    0.77940    -0.00129   1.00
H2       0.37133    0.76909    -0.03137   1.00
H2       0.39610    0.75636    0.01302   1.00
C5       0.40044    0.81838    -0.00262   1.00
H2       0.40710    0.82899    0.02732   1.00
H2       0.38309    0.84104    -0.01811   1.00
C5       0.43935    0.81311    -0.02445   1.00
C5       0.21968    0.83599    -0.01105   1.00
C5       0.27709    0.66183    -0.11070   1.00
H2       0.20405    0.81594    0.00912   1.00
H2       0.20091    0.84129    -0.03712   1.00
H2       0.29277    0.65497    -0.08300   1.00
H2       0.29700    0.68017    -0.12895   1.00
H2       0.29424    0.62615    -0.19030   1.00
H2       0.18379    0.86946    0.05753   1.00
H2       0.16435    0.88937    0.01237   1.00
C2       0.25205    0.75172    0.10395   1.00
C3       0.21599    0.75120    0.08403   1.00
O2       0.18198    0.76088    0.10326   1.00
C3       0.28681    0.74979    0.08174   1.00
H1       0.31485    0.74912    0.09615   1.00
C3a      0.21545    0.74981    0.04287   1.00
H1       0.18769    0.75168    0.02798   1.00
C3b      0.28619    0.74968    0.04078   1.00
C4       0.25035    0.74977    0.02100   1.00
O3       0.25645    0.82081    -0.02167   1.00
C5       0.16084    0.72686    0.11280   1.00
H2       0.15310    0.70987    0.08609   1.00
C5       0.12358    0.73998    0.13326   1.00
H2       0.17797    0.70771    0.13274   1.00
H2       0.10230    0.74964    0.11068   1.00
H2       0.13091    0.76626    0.15093   1.00
C5       0.10562    0.70799    0.15918   1.00
H2       0.10137    0.68097    0.14176   1.00
C5       0.06587    0.72111    0.17547   1.00
H2       0.12459    0.70149    0.18493   1.00
C5       0.22667    0.87464    0.00983   1.00
H2       0.23604    0.89668    -0.01215   1.00
H2       0.25148    0.87072    0.03048   1.00
C5       0.19020    0.88865    0.03200   1.00
C5       0.19687    0.93019    0.04775   1.00
H2       0.26659    0.56307    -0.19286   1.00
C5       0.32937    0.55022    -0.18912   1.00
H2       0.28449    0.55020    -0.14323   1.00
C5       0.45710    0.85340    -0.03337   1.00
H2       0.46040    0.79566    -0.00551   1.00
H2       0.43396    0.79682    -0.05293   1.00
C5       0.04544    0.68620    0.19503   1.00
H2       0.07049    0.74523    0.19789   1.00
H2       0.04693    0.73253    0.15063   1.00
H2       0.22587    0.93137    0.06398   1.00
H2       0.19747    0.95170    0.02239   1.00
C5       0.16354    0.94109    0.07583   1.00
H2       0.34773    0.57520    -0.20116   1.00
H2       0.34661    0.53408    -0.16571   1.00
H2       0.32173    0.52920    -0.21374   1.00
H2       0.43922    0.87699    -0.01820   1.00
H2       0.48844    0.85441    -0.02229   1.00
H2       0.45677    0.85864    -0.06621   1.00
H2       0.06797    0.66776    0.21111   1.00
H2       0.02275    0.69733    0.21664   1.00
H2       0.03049    0.66767    0.17181   1.00
H2       0.17217    0.93307    0.10693   1.00
H2       0.15775    0.97379    0.07402   1.00
H2       0.13601    0.92447    0.06734   1.00
C5       0.76659    0.37569    0.63218   1.00
H2       0.73872    0.36939    0.64745   1.00
H2       0.75991    0.39922    0.61090   1.00
C5       0.79718    0.38972    0.66194   1.00
C5       0.79159    0.43332    0.67123   1.00
H2       0.82710    0.38515    0.65015   1.00
O3       0.82076    0.25286    0.48000   1.00
C4       0.74965    0.24977    0.52100   1.00
C3c      0.74756    0.28463    0.54243   1.00
H1       0.74579    0.31222    0.52725   1.00
C3d      0.75137    0.21409    0.54135   1.00
C3       0.74827    0.28458    0.58354   1.00
O2       0.74133    0.31930    0.60248   1.00
C3       0.75284    0.21398    0.58227   1.00
H1       0.75556    0.18600    0.59657   1.00
C2       0.75118    0.24899    0.60439   1.00
C5       0.84000    0.21645    0.47879   1.00
H2       0.84689    0.20719    0.44838   1.00
H2       0.82192    0.19318    0.49266   1.00
C5       0.87815    0.22060    0.50129   1.00
H2       0.87133    0.23091    0.53137   1.00
H2       0.89610    0.24364    0.48698   1.00
C5       0.90044    0.18162    0.50262   1.00
H2       0.90710    0.17101    0.47268   1.00
H2       0.88309    0.15896    0.51811   1.00
C5       0.93935    0.18689    0.52445   1.00
C5       0.71968    0.16401    0.51105   1.00
C5       0.77709    0.33817    0.61070   1.00
H2       0.70405    0.18406    0.49088   1.00
H2       0.70091    0.15871    0.53712   1.00
H2       0.79277    0.34503    0.58300   1.00
H2       0.79700    0.31983    0.62895   1.00
H2       0.79424    0.37385    0.69030   1.00
H2       0.68379    0.13054    0.44247   1.00
H2       0.66435    0.11063    0.48763   1.00
C2       0.75205    0.24828    0.39605   1.00
C3       0.71599    0.24880    0.41597   1.00
O2       0.68198    0.23912    0.39674   1.00
C3       0.78681    0.25021    0.41826   1.00
H1       0.81485    0.25088    0.40385   1.00
C3a      0.71545    0.25019    0.45713   1.00
H1       0.68769    0.24832    0.47202   1.00
C3b      0.78619    0.25032    0.45922   1.00
C4       0.75035    0.25023    0.47900   1.00
O3       0.75645    0.17919    0.52167   1.00
C5       0.66084    0.27314    0.38720   1.00
H2       0.65310    0.29013    0.41391   1.00
C5       0.62358    0.26002    0.36674   1.00
H2       0.67797    0.29229    0.36726   1.00
H2       0.60230    0.25036    0.38932   1.00
H2       0.63091    0.23374    0.34907   1.00
C5       0.60562    0.29201    0.34082   1.00
H2       0.60137    0.31903    0.35824   1.00
C5       0.56587    0.27889    0.32453   1.00
H2       0.62459    0.29851    0.31507   1.00
C5       0.72667    0.12536    0.49017   1.00
H2       0.73604    0.10332    0.51215   1.00
H2       0.75148    0.12928    0.46952   1.00
C5       0.69020    0.11135    0.46800   1.00
C5       0.69687    0.06981    0.45225   1.00
H2       0.76659    0.43693    0.69286   1.00
C5       0.82937    0.44978    0.68912   1.00
H2       0.78449    0.44980    0.64323   1.00
C5       0.95710    0.14660    0.53337   1.00
H2       0.96040    0.20434    0.50551   1.00
H2       0.93396    0.20318    0.55293   1.00
C5       0.54544    0.31380    0.30497   1.00
H2       0.57049    0.25477    0.30211   1.00
H2       0.54693    0.26747    0.34937   1.00
H2       0.72587    0.06863    0.43602   1.00
H2       0.69747    0.04830    0.47761   1.00
C5       0.66354    0.05891    0.42417   1.00
H2       0.84773    0.42480    0.70116   1.00
H2       0.84661    0.46592    0.66571   1.00
H2       0.82173    0.47080    0.71374   1.00
H2       0.93922    0.12301    0.51820   1.00
H2       0.98844    0.14559    0.52229   1.00
H2       0.95677    0.14136    0.56621   1.00
H2       0.56797    0.33224    0.28889   1.00
H2       0.52275    0.30267    0.28336   1.00
H2       0.53049    0.33233    0.32819   1.00
H2       0.67217    0.06693    0.39307   1.00
H2       0.65775    0.02621    0.42598   1.00
H2       0.63601    0.07553    0.43266   1.00
C5       0.87569    0.63218    0.26659   1.00
H2       0.86939    0.64745    0.23872   1.00
H2       0.89922    0.61090    0.25991   1.00
C5       0.88972    0.66194    0.29718   1.00
C5       0.93332    0.67123    0.29159   1.00
H2       0.88515    0.65015    0.32710   1.00
O3       0.75286    0.48000    0.32076   1.00
C4       0.74977    0.52100    0.24965   1.00
C3c      0.78463    0.54243    0.24756   1.00
H1       0.81222    0.52725    0.24579   1.00
C3d      0.71409    0.54135    0.25137   1.00
C3       0.78458    0.58354    0.24827   1.00
O2       0.81930    0.60248    0.24133   1.00
C3       0.71398    0.58227    0.25284   1.00
H1       0.68600    0.59657    0.25556   1.00
C2       0.74899    0.60439    0.25118   1.00
C5       0.71645    0.47879    0.34000   1.00
H2       0.70719    0.44838    0.34689   1.00
H2       0.69318    0.49266    0.32192   1.00
C5       0.72060    0.50129    0.37815   1.00
H2       0.73091    0.53137    0.37133   1.00
H2       0.74364    0.48698    0.39610   1.00
C5       0.68162    0.50262    0.40044   1.00
H2       0.67101    0.47268    0.40710   1.00
H2       0.65896    0.51811    0.38309   1.00
C5       0.68689    0.52445    0.43935   1.00
C5       0.66401    0.51105    0.21968   1.00
C5       0.83817    0.61070    0.27709   1.00
H2       0.68406    0.49088    0.20405   1.00
H2       0.65871    0.53712    0.20091   1.00
H2       0.84503    0.58300    0.29277   1.00
H2       0.81983    0.62895    0.29700   1.00
H2       0.87385    0.69030    0.29424   1.00
H2       0.63054    0.44247    0.18379   1.00
H2       0.61063    0.48763    0.16435   1.00
C2       0.74828    0.39605    0.25205   1.00
C3       0.74880    0.41597    0.21599   1.00
O2       0.73912    0.39674    0.18198   1.00
C3       0.75021    0.41826    0.28681   1.00
H1       0.75088    0.40385    0.31485   1.00
C3a      0.75019    0.45713    0.21545   1.00
H1       0.74832    0.47202    0.18769   1.00
C3b      0.75032    0.45922    0.28619   1.00
C4       0.75023    0.47900    0.25035   1.00
O3       0.67919    0.52167    0.25645   1.00
C5       0.77314    0.38720    0.16084   1.00
H2       0.79013    0.41391    0.15310   1.00
C5       0.76002    0.36674    0.12358   1.00
H2       0.79229    0.36726    0.17797   1.00
H2       0.75036    0.38932    0.10230   1.00
H2       0.73374    0.34907    0.13091   1.00
C5       0.79201    0.34082    0.10562   1.00
H2       0.81903    0.35824    0.10137   1.00
C5       0.77889    0.32453    0.06587   1.00
H2       0.79851    0.31507    0.12459   1.00
C5       0.62536    0.49017    0.22667   1.00
H2       0.60332    0.51215    0.23604   1.00
H2       0.62928    0.46952    0.25148   1.00
C5       0.61135    0.46800    0.19020   1.00
C5       0.56981    0.45225    0.19687   1.00
H2       0.93693    0.69286    0.26659   1.00
C5       0.94978    0.68912    0.32937   1.00
H2       0.94980    0.64323    0.28449   1.00
C5       0.64660    0.53337    0.45710   1.00
H2       0.70434    0.50551    0.46040   1.00
H2       0.70318    0.55293    0.43396   1.00
C5       0.81380    0.30497    0.04544   1.00
H2       0.75477    0.30211    0.07049   1.00
H2       0.76747    0.34937    0.04693   1.00
H2       0.56863    0.43602    0.22587   1.00
H2       0.54830    0.47761    0.19747   1.00
C5       0.55891    0.42417    0.16354   1.00
H2       0.92480    0.70116    0.34773   1.00
H2       0.96592    0.66571    0.34661   1.00
H2       0.97080    0.71374    0.32173   1.00
H2       0.62301    0.51820    0.43922   1.00
H2       0.64559    0.52229    0.48844   1.00
H2       0.64136    0.56621    0.45677   1.00
H2       0.83224    0.28889    0.06797   1.00
H2       0.80267    0.28336    0.02275   1.00
H2       0.83233    0.32819    0.03049   1.00
H2       0.56693    0.39307    0.17217   1.00
H2       0.52621    0.42598    0.15775   1.00
H2       0.57553    0.43266    0.13601   1.00
C5       0.36782    0.26659    0.12431   1.00
H2       0.35255    0.23872    0.13061   1.00
H2       0.38910    0.25991    0.10078   1.00
C5       0.33806    0.29718    0.11028   1.00
C5       0.32877    0.29159    0.06668   1.00
H2       0.34985    0.32710    0.11485   1.00
O3       0.52000    0.32076    0.24714   1.00
C4       0.47900    0.24965    0.25023   1.00
C3c      0.45757    0.24756    0.21537   1.00
H1       0.47275    0.24579    0.18778   1.00
C3d      0.45865    0.25137    0.28591   1.00
C3       0.41646    0.24827    0.21542   1.00
O2       0.39752    0.24133    0.18070   1.00
C3       0.41773    0.25284    0.28602   1.00
H1       0.40343    0.25556    0.31400   1.00
C2       0.39561    0.25118    0.25101   1.00
C5       0.52121    0.34000    0.28355   1.00
H2       0.55162    0.34689    0.29281   1.00
H2       0.50734    0.32192    0.30682   1.00
C5       0.49871    0.37815    0.27940   1.00
H2       0.46863    0.37133    0.26909   1.00
H2       0.51302    0.39610    0.25636   1.00
C5       0.49738    0.40044    0.31838   1.00
H2       0.52732    0.40710    0.32899   1.00
H2       0.48189    0.38309    0.34104   1.00
C5       0.47555    0.43935    0.31311   1.00
C5       0.48895    0.21968    0.33599   1.00
C5       0.38930    0.27709    0.16183   1.00
H2       0.50912    0.20405    0.31594   1.00
H2       0.46288    0.20091    0.34129   1.00
H2       0.41700    0.29277    0.15497   1.00
H2       0.37105    0.29700    0.18017   1.00
H2       0.30970    0.29424    0.12615   1.00
H2       0.55753    0.18379    0.36946   1.00
H2       0.51237    0.16435    0.38937   1.00
C2       0.60395    0.25205    0.25172   1.00
C3       0.58403    0.21599    0.25120   1.00
O2       0.60326    0.18198    0.26088   1.00
C3       0.58174    0.28681    0.24979   1.00
H1       0.59615    0.31485    0.24912   1.00
C3a      0.54287    0.21545    0.24981   1.00
H1       0.52798    0.18769    0.25168   1.00
C3b      0.54078    0.28619    0.24968   1.00
C4       0.52100    0.25035    0.24977   1.00
O3       0.47833    0.25645    0.32081   1.00
C5       0.61280    0.16084    0.22686   1.00
H2       0.58609    0.15310    0.20987   1.00
C5       0.63326    0.12358    0.23998   1.00
H2       0.63274    0.17797    0.20771   1.00
H2       0.61068    0.10230    0.24964   1.00
H2       0.65093    0.13091    0.26626   1.00
C5       0.65918    0.10562    0.20799   1.00
H2       0.64176    0.10137    0.18097   1.00
C5       0.67547    0.06587    0.22111   1.00
H2       0.68493    0.12459    0.20149   1.00
C5       0.50983    0.22667    0.37464   1.00
H2       0.48785    0.23604    0.39668   1.00
H2       0.53048    0.25148    0.37072   1.00
C5       0.53200    0.19020    0.38865   1.00
C5       0.54775    0.19687    0.43019   1.00
H2       0.30714    0.26659    0.06307   1.00
C5       0.31088    0.32937    0.05022   1.00
H2       0.35677    0.28449    0.05020   1.00
C5       0.46663    0.45710    0.35340   1.00
H2       0.49449    0.46040    0.29566   1.00
H2       0.44707    0.43396    0.29682   1.00
C5       0.69503    0.04544    0.18620   1.00
H2       0.69789    0.07049    0.24523   1.00
H2       0.65063    0.04693    0.23253   1.00
H2       0.56398    0.22587    0.43137   1.00
H2       0.52239    0.19747    0.45170   1.00
C5       0.57583    0.16354    0.44109   1.00
H2       0.29884    0.34773    0.07520   1.00
H2       0.33429    0.34661    0.03408   1.00
H2       0.28626    0.32173    0.02920   1.00
H2       0.48180    0.43922    0.37699   1.00
H2       0.47771    0.48844    0.35441   1.00
H2       0.43379    0.45677    0.35864   1.00
H2       0.71111    0.06797    0.16776   1.00
H2       0.71664    0.02275    0.19733   1.00
H2       0.67181    0.03049    0.16767   1.00
H2       0.60693    0.17217    0.43307   1.00
H2       0.57402    0.15775    0.47379   1.00
H2       0.56734    0.13601    0.42447   1.00
C5       1.13218    0.26659    0.37569   1.00
H2       1.14745    0.23872    0.36939   1.00
H2       1.11090    0.25991    0.39922   1.00
C5       1.16194    0.29718    0.38972   1.00
C5       1.17123    0.29159    0.43332   1.00
H2       1.15015    0.32710    0.38515   1.00
O3       0.98000    0.32076    0.25286   1.00
C4       1.02100    0.24965    0.24977   1.00
C3c      1.04243    0.24756    0.28463   1.00
H1       1.02725    0.24579    0.31222   1.00
C3d      1.04135    0.25137    0.21409   1.00
C3       1.08354    0.24827    0.28458   1.00
O2       1.10248    0.24133    0.31930   1.00
C3       1.08227    0.25284    0.21398   1.00
H1       1.09657    0.25556    0.18600   1.00
C2       1.10439    0.25118    0.24899   1.00
C5       0.97879    0.34000    0.21645   1.00
H2       0.94838    0.34689    0.20719   1.00
H2       0.99266    0.32192    0.19318   1.00
C5       1.00129    0.37815    0.22060   1.00
H2       1.03137    0.37133    0.23091   1.00
H2       0.98698    0.39610    0.24364   1.00
C5       1.00262    0.40044    0.18162   1.00
H2       0.97268    0.40710    0.17101   1.00
H2       1.01811    0.38309    0.15896   1.00
C5       1.02445    0.43935    0.18689   1.00
C5       1.01105    0.21968    0.16401   1.00
C5       1.11070    0.27709    0.33817   1.00
H2       0.99088    0.20405    0.18406   1.00
H2       1.03712    0.20091    0.15871   1.00
H2       1.08300    0.29277    0.34503   1.00
H2       1.12895    0.29700    0.31983   1.00
H2       1.19030    0.29424    0.37385   1.00
H2       0.94247    0.18379    0.13054   1.00
H2       0.98763    0.16435    0.11063   1.00
C2       0.89605    0.25205    0.24828   1.00
C3       0.91597    0.21599    0.24880   1.00
O2       0.89674    0.18198    0.23912   1.00
C3       0.91826    0.28681    0.25021   1.00
H1       0.90385    0.31485    0.25088   1.00
C3a      0.95713    0.21545    0.25019   1.00
H1       0.97202    0.18769    0.24832   1.00
C3b      0.95922    0.28619    0.25032   1.00
C4       0.97900    0.25035    0.25023   1.00
O3       1.02167    0.25645    0.17919   1.00
C5       0.88720    0.16084    0.27314   1.00
H2       0.91391    0.15310    0.29013   1.00
C5       0.86674    0.12358    0.26002   1.00
H2       0.86726    0.17797    0.29229   1.00
H2       0.88932    0.10230    0.25036   1.00
H2       0.84907    0.13091    0.23374   1.00
C5       0.84082    0.10562    0.29201   1.00
H2       0.85824    0.10137    0.31903   1.00
C5       0.82453    0.06587    0.27889   1.00
H2       0.81507    0.12459    0.29851   1.00
C5       0.99017    0.22667    0.12536   1.00
H2       1.01215    0.23604    0.10332   1.00
H2       0.96952    0.25148    0.12928   1.00
C5       0.96800    0.19020    0.11135   1.00
C5       0.95225    0.19687    0.06981   1.00
H2       1.19286    0.26659    0.43693   1.00
C5       1.18912    0.32937    0.44978   1.00
H2       1.14323    0.28449    0.44980   1.00
C5       1.03337    0.45710    0.14660   1.00
H2       1.00551    0.46040    0.20434   1.00
H2       1.05293    0.43396    0.20318   1.00
C5       0.80497    0.04544    0.31380   1.00
H2       0.80211    0.07049    0.25477   1.00
H2       0.84937    0.04693    0.26747   1.00
H2       0.93602    0.22587    0.06863   1.00
H2       0.97761    0.19747    0.04830   1.00
C5       0.92417    0.16354    0.05891   1.00
H2       1.20116    0.34773    0.42480   1.00
H2       1.16571    0.34661    0.46592   1.00
H2       1.21374    0.32173    0.47080   1.00
H2       1.01820    0.43922    0.12301   1.00
H2       1.02229    0.48844    0.14559   1.00
H2       1.06621    0.45677    0.14136   1.00
H2       0.78889    0.06797    0.33224   1.00
H2       0.78336    0.02275    0.30267   1.00
H2       0.82819    0.03049    0.33233   1.00
H2       0.89307    0.17217    0.06693   1.00
H2       0.92598    0.15775    0.02621   1.00
H2       0.93266    0.13601    0.07553   1.00
C5       0.62431    -0.13218   0.26659   1.00
H2       0.63061    -0.14745   0.23872   1.00
H2       0.60078    -0.11090   0.25991   1.00
C5       0.61028    -0.16194   0.29718   1.00
C5       0.56668    -0.17123   0.29159   1.00
H2       0.61485    -0.15015   0.32710   1.00
O3       0.74714    0.02000    0.32076   1.00
C4       0.75023    -0.02100   0.24965   1.00
C3c      0.71537    -0.04243   0.24756   1.00
H1       0.68778    -0.02725   0.24579   1.00
C3d      0.78591    -0.04135   0.25137   1.00
C3       0.71542    -0.08354   0.24827   1.00
O2       0.68070    -0.10248   0.24133   1.00
C3       0.78602    -0.08227   0.25284   1.00
H1       0.81400    -0.09657   0.25556   1.00
C2       0.75101    -0.10439   0.25118   1.00
C5       0.78355    0.02121    0.34000   1.00
H2       0.79281    0.05162    0.34689   1.00
H2       0.80682    0.00734    0.32192   1.00
C5       0.77940    -0.00129   0.37815   1.00
H2       0.76909    -0.03137   0.37133   1.00
H2       0.75636    0.01302    0.39610   1.00
C5       0.81838    -0.00262   0.40044   1.00
H2       0.82899    0.02732    0.40710   1.00
H2       0.84104    -0.01811   0.38309   1.00
C5       0.81311    -0.02445   0.43935   1.00
C5       0.83599    -0.01105   0.21968   1.00
C5       0.66183    -0.11070   0.27709   1.00
H2       0.81594    0.00912    0.20405   1.00
H2       0.84129    -0.03712   0.20091   1.00
H2       0.65497    -0.08300   0.29277   1.00
H2       0.68017    -0.12895   0.29700   1.00
H2       0.62615    -0.19030   0.29424   1.00
H2       0.86946    0.05753    0.18379   1.00
H2       0.88937    0.01237    0.16435   1.00
C2       0.75172    0.10395    0.25205   1.00
C3       0.75120    0.08403    0.21599   1.00
O2       0.76088    0.10326    0.18198   1.00
C3       0.74979    0.08174    0.28681   1.00
H1       0.74912    0.09615    0.31485   1.00
C3a      0.74981    0.04287    0.21545   1.00
H1       0.75168    0.02798    0.18769   1.00
C3b      0.74968    0.04078    0.28619   1.00
C4       0.74977    0.02100    0.25035   1.00
O3       0.82081    -0.02167   0.25645   1.00
C5       0.72686    0.11280    0.16084   1.00
H2       0.70987    0.08609    0.15310   1.00
C5       0.73998    0.13326    0.12358   1.00
H2       0.70771    0.13274    0.17797   1.00
H2       0.74964    0.11068    0.10230   1.00
H2       0.76626    0.15093    0.13091   1.00
C5       0.70799    0.15918    0.10562   1.00
H2       0.68097    0.14176    0.10137   1.00
C5       0.72111    0.17547    0.06587   1.00
H2       0.70149    0.18493    0.12459   1.00
C5       0.87464    0.00983    0.22667   1.00
H2       0.89668    -0.01215   0.23604   1.00
H2       0.87072    0.03048    0.25148   1.00
C5       0.88865    0.03200    0.19020   1.00
C5       0.93019    0.04775    0.19687   1.00
H2       0.56307    -0.19286   0.26659   1.00
C5       0.55022    -0.18912   0.32937   1.00
H2       0.55020    -0.14323   0.28449   1.00
C5       0.85340    -0.03337   0.45710   1.00
H2       0.79566    -0.00551   0.46040   1.00
H2       0.79682    -0.05293   0.43396   1.00
C5       0.68620    0.19503    0.04544   1.00
H2       0.74523    0.19789    0.07049   1.00
H2       0.73253    0.15063    0.04693   1.00
H2       0.93137    0.06398    0.22587   1.00
H2       0.95170    0.02239    0.19747   1.00
C5       0.94109    0.07583    0.16354   1.00
H2       0.57520    -0.20116   0.34773   1.00
H2       0.53408    -0.16571   0.34661   1.00
H2       0.52920    -0.21374   0.32173   1.00
H2       0.87699    -0.01820   0.43922   1.00
H2       0.85441    -0.02229   0.48844   1.00
H2       0.85864    -0.06621   0.45677   1.00
H2       0.66776    0.21111    0.06797   1.00
H2       0.69733    0.21664    0.02275   1.00
H2       0.66767    0.17181    0.03049   1.00
H2       0.93307    0.10693    0.17217   1.00
H2       0.97379    0.07402    0.15775   1.00
H2       0.92447    0.06734    0.13601   1.00
C5       0.76659    0.12431    -0.13218   1.00
H2       0.73872    0.13061    -0.14745   1.00
H2       0.75991    0.10078    -0.11090   1.00
C5       0.79718    0.11028    -0.16194   1.00
C5       0.79159    0.06668    -0.17123   1.00
H2       0.82710    0.11485    -0.15015   1.00
O3       0.82076    0.24714    0.02000   1.00
C4       0.74965    0.25023    -0.02100   1.00
C3c      0.74756    0.21537    -0.04243   1.00
H1       0.74579    0.18778    -0.02725   1.00
C3d      0.75137    0.28591    -0.04135   1.00
C3       0.74827    0.21542    -0.08354   1.00
O2       0.74133    0.18070    -0.10248   1.00
C3       0.75284    0.28602    -0.08227   1.00
H1       0.75556    0.31400    -0.09657   1.00
C2       0.75118    0.25101    -0.10439   1.00
C5       0.84000    0.28355    0.02121   1.00
H2       0.84689    0.29281    0.05162   1.00
H2       0.82192    0.30682    0.00734   1.00
C5       0.87815    0.27940    -0.00129   1.00
H2       0.87133    0.26909    -0.03137   1.00
H2       0.89610    0.25636    0.01302   1.00
C5       0.90044    0.31838    -0.00262   1.00
H2       0.90710    0.32899    0.02732   1.00
H2       0.88309    0.34104    -0.01811   1.00
C5       0.93935    0.31311    -0.02445   1.00
C5       0.71968    0.33599    -0.01105   1.00
C5       0.77709    0.16183    -0.11070   1.00
H2       0.70405    0.31594    0.00912   1.00
H2       0.70091    0.34129    -0.03712   1.00
H2       0.79277    0.15497    -0.08300   1.00
H2       0.79700    0.18017    -0.12895   1.00
H2       0.79424    0.12615    -0.19030   1.00
H2       0.68379    0.36946    0.05753   1.00
H2       0.66435    0.38937    0.01237   1.00
C2       0.75205    0.25172    0.10395   1.00
C3       0.71599    0.25120    0.08403   1.00
O2       0.68198    0.26088    0.10326   1.00
C3       0.78681    0.24979    0.08174   1.00
H1       0.81485    0.24912    0.09615   1.00
C3a      0.71545    0.24981    0.04287   1.00
H1       0.68769    0.25168    0.02798   1.00
C3b      0.78619    0.24968    0.04078   1.00
C4       0.75035    0.24977    0.02100   1.00
O3       0.75645    0.32081    -0.02167   1.00
C5       0.66084    0.22686    0.11280   1.00
H2       0.65310    0.20987    0.08609   1.00
C5       0.62358    0.23998    0.13326   1.00
H2       0.67797    0.20771    0.13274   1.00
H2       0.60230    0.24964    0.11068   1.00
H2       0.63091    0.26626    0.15093   1.00
C5       0.60562    0.20799    0.15918   1.00
H2       0.60137    0.18097    0.14176   1.00
C5       0.56587    0.22111    0.17547   1.00
H2       0.62459    0.20149    0.18493   1.00
C5       0.72667    0.37464    0.00983   1.00
H2       0.73604    0.39668    -0.01215   1.00
H2       0.75148    0.37072    0.03048   1.00
C5       0.69020    0.38865    0.03200   1.00
C5       0.69687    0.43019    0.04775   1.00
H2       0.76659    0.06307    -0.19286   1.00
C5       0.82937    0.05022    -0.18912   1.00
H2       0.78449    0.05020    -0.14323   1.00
C5       0.95710    0.35340    -0.03337   1.00
H2       0.96040    0.29566    -0.00551   1.00
H2       0.93396    0.29682    -0.05293   1.00
C5       0.54544    0.18620    0.19503   1.00
H2       0.57049    0.24523    0.19789   1.00
H2       0.54693    0.23253    0.15063   1.00
H2       0.72587    0.43137    0.06398   1.00
H2       0.69747    0.45170    0.02239   1.00
C5       0.66354    0.44109    0.07583   1.00
H2       0.84773    0.07520    -0.20116   1.00
H2       0.84661    0.03408    -0.16571   1.00
H2       0.82173    0.02920    -0.21374   1.00
H2       0.93922    0.37699    -0.01820   1.00
H2       0.98844    0.35441    -0.02229   1.00
H2       0.95677    0.35864    -0.06621   1.00
H2       0.56797    0.16776    0.21111   1.00
H2       0.52275    0.19733    0.21664   1.00
H2       0.53049    0.16767    0.17181   1.00
H2       0.67217    0.43307    0.10693   1.00
H2       0.65775    0.47379    0.07402   1.00
H2       0.63601    0.42447    0.06734   1.00
C5       0.93159    1.04069    1.29718   1.00
H2       0.90372    1.03439    1.31245   1.00
H2       0.92491    1.06422    1.27590   1.00
C5       0.96218    1.05472    1.32694   1.00
C5       0.95659    1.09832    1.33623   1.00
H2       0.99210    1.05015    1.31515   1.00
O3       0.98576    0.91786    1.14500   1.00
C4       0.91465    0.91477    1.18600   1.00
C3c      0.91256    0.94963    1.20743   1.00
H1       0.91079    0.97722    1.19225   1.00
C3d      0.91637    0.87909    1.20635   1.00
C3       0.91327    0.94958    1.24854   1.00
O2       0.90633    0.98430    1.26748   1.00
C3       0.91784    0.87898    1.24727   1.00
H1       0.92056    0.85100    1.26157   1.00
C2       0.91618    0.91399    1.26939   1.00
C5       1.00500    0.88145    1.14379   1.00
H2       1.01189    0.87219    1.11338   1.00
H2       0.98692    0.85818    1.15766   1.00
C5       1.04315    0.88560    1.16629   1.00
H2       1.03633    0.89591    1.19637   1.00
H2       1.06110    0.90864    1.15198   1.00
C5       1.06544    0.84662    1.16762   1.00
H2       1.07210    0.83601    1.13768   1.00
H2       1.04809    0.82396    1.18311   1.00
C5       1.10435    0.85189    1.18945   1.00
C5       0.88468    0.82901    1.17605   1.00
C5       0.94209    1.00317    1.27570   1.00
H2       0.86905    0.84906    1.15588   1.00
H2       0.86591    0.82371    1.20212   1.00
H2       0.95777    1.01003    1.24800   1.00
H2       0.96200    0.98483    1.29395   1.00
H2       0.95924    1.03885    1.35530   1.00
H2       0.84879    0.79554    1.10747   1.00
H2       0.82935    0.77563    1.15263   1.00
C2       0.91705    0.91328    1.06105   1.00
C3       0.88099    0.91380    1.08097   1.00
O2       0.84698    0.90412    1.06174   1.00
C3       0.95181    0.91521    1.08326   1.00
H1       0.97985    0.91588    1.06885   1.00
C3a      0.88045    0.91519    1.12213   1.00
H1       0.85269    0.91332    1.13702   1.00
C3b      0.95119    0.91532    1.12422   1.00
C4       0.91535    0.91523    1.14400   1.00
O3       0.92145    0.84419    1.18667   1.00
C5       0.82584    0.93814    1.05220   1.00
H2       0.81810    0.95513    1.07891   1.00
C5       0.78858    0.92502    1.03174   1.00
H2       0.84297    0.95729    1.03226   1.00
H2       0.76730    0.91536    1.05432   1.00
H2       0.79591    0.89874    1.01407   1.00
C5       0.77062    0.95701    1.00582   1.00
H2       0.76637    0.98403    1.02324   1.00
C5       0.73087    0.94389    0.98953   1.00
H2       0.78959    0.96351    0.98007   1.00
C5       0.89167    0.79036    1.15517   1.00
H2       0.90104    0.76832    1.17715   1.00
H2       0.91648    0.79428    1.13452   1.00
C5       0.85520    0.77635    1.13300   1.00
C5       0.86187    0.73481    1.11725   1.00
H2       0.93159    1.10193    1.35786   1.00
C5       0.99437    1.11478    1.35412   1.00
H2       0.94949    1.11480    1.30823   1.00
C5       1.12210    0.81160    1.19837   1.00
H2       1.12540    0.86934    1.17051   1.00
H2       1.09896    0.86818    1.21793   1.00
C5       0.71044    0.97880    0.96997   1.00
H2       0.73549    0.91977    0.96711   1.00
H2       0.71193    0.93247    1.01437   1.00
H2       0.89087    0.73363    1.10102   1.00
H2       0.86247    0.71330    1.14261   1.00
C5       0.82854    0.72391    1.08917   1.00
H2       1.01273    1.08980    1.36616   1.00
H2       1.01161    1.13092    1.33071   1.00
H2       0.98673    1.13580    1.37874   1.00
H2       1.10422    0.78801    1.18320   1.00
H2       1.15344    0.81059    1.18729   1.00
H2       1.12177    0.80636    1.23121   1.00
H2       0.73297    0.99724    0.95389   1.00
H2       0.68775    0.96767    0.94836   1.00
H2       0.69549    0.99733    0.99319   1.00
H2       0.83717    0.73193    1.05807   1.00
H2       0.82275    0.69121    1.09098   1.00
H2       0.80101    0.74053    1.09766   1.00
C5       1.04069    1.29718    0.93159   1.00
H2       1.03439    1.31245    0.90372   1.00
H2       1.06422    1.27590    0.92491   1.00
C5       1.05472    1.32694    0.96218   1.00
C5       1.09832    1.33623    0.95659   1.00
H2       1.05015    1.31515    0.99210   1.00
O3       0.91786    1.14500    0.98576   1.00
C4       0.91477    1.18600    0.91465   1.00
C3c      0.94963    1.20743    0.91256   1.00
H1       0.97722    1.19225    0.91079   1.00
C3d      0.87909    1.20635    0.91637   1.00
C3       0.94958    1.24854    0.91327   1.00
O2       0.98430    1.26748    0.90633   1.00
C3       0.87898    1.24727    0.91784   1.00
H1       0.85100    1.26157    0.92056   1.00
C2       0.91399    1.26939    0.91618   1.00
C5       0.88145    1.14379    1.00500   1.00
H2       0.87219    1.11338    1.01189   1.00
H2       0.85818    1.15766    0.98692   1.00
C5       0.88560    1.16629    1.04315   1.00
H2       0.89591    1.19637    1.03633   1.00
H2       0.90864    1.15198    1.06110   1.00
C5       0.84662    1.16762    1.06544   1.00
H2       0.83601    1.13768    1.07210   1.00
H2       0.82396    1.18311    1.04809   1.00
C5       0.85189    1.18945    1.10435   1.00
C5       0.82901    1.17605    0.88468   1.00
C5       1.00317    1.27570    0.94209   1.00
H2       0.84906    1.15588    0.86905   1.00
H2       0.82371    1.20212    0.86591   1.00
H2       1.01003    1.24800    0.95777   1.00
H2       0.98483    1.29395    0.96200   1.00
H2       1.03885    1.35530    0.95924   1.00
H2       0.79554    1.10747    0.84879   1.00
H2       0.77563    1.15263    0.82935   1.00
C2       0.91328    1.06105    0.91705   1.00
C3       0.91380    1.08097    0.88099   1.00
O2       0.90412    1.06174    0.84698   1.00
C3       0.91521    1.08326    0.95181   1.00
H1       0.91588    1.06885    0.97985   1.00
C3a      0.91519    1.12213    0.88045   1.00
H1       0.91332    1.13702    0.85269   1.00
C3b      0.91532    1.12422    0.95119   1.00
C4       0.91523    1.14400    0.91535   1.00
O3       0.84419    1.18667    0.92145   1.00
C5       0.93814    1.05220    0.82584   1.00
H2       0.95513    1.07891    0.81810   1.00
C5       0.92502    1.03174    0.78858   1.00
H2       0.95729    1.03226    0.84297   1.00
H2       0.91536    1.05432    0.76730   1.00
H2       0.89874    1.01407    0.79591   1.00
C5       0.95701    1.00582    0.77062   1.00
H2       0.98403    1.02324    0.76637   1.00
C5       0.94389    0.98953    0.73087   1.00
H2       0.96351    0.98007    0.78959   1.00
C5       0.79036    1.15517    0.89167   1.00
H2       0.76832    1.17715    0.90104   1.00
H2       0.79428    1.13452    0.91648   1.00
C5       0.77635    1.13300    0.85520   1.00
C5       0.73481    1.11725    0.86187   1.00
H2       1.10193    1.35786    0.93159   1.00
C5       1.11478    1.35412    0.99437   1.00
H2       1.11480    1.30823    0.94949   1.00
C5       0.81160    1.19837    1.12210   1.00
H2       0.86934    1.17051    1.12540   1.00
H2       0.86818    1.21793    1.09896   1.00
C5       0.97880    0.96997    0.71044   1.00
H2       0.91977    0.96711    0.73549   1.00
H2       0.93247    1.01437    0.71193   1.00
H2       0.73363    1.10102    0.89087   1.00
H2       0.71330    1.14261    0.86247   1.00
C5       0.72391    1.08917    0.82854   1.00
H2       1.08980    1.36616    1.01273   1.00
H2       1.13092    1.33071    1.01161   1.00
H2       1.13580    1.37874    0.98673   1.00
H2       0.78801    1.18320    1.10422   1.00
H2       0.81059    1.18729    1.15344   1.00
H2       0.80636    1.23121    1.12177   1.00
H2       0.99724    0.95389    0.73297   1.00
H2       0.96767    0.94836    0.68775   1.00
H2       0.99733    0.99319    0.69549   1.00
H2       0.73193    1.05807    0.83717   1.00
H2       0.69121    1.09098    0.82275   1.00
H2       0.74053    1.09766    0.80101   1.00
C5       0.53282    0.93159    0.78931   1.00
H2       0.51755    0.90372    0.79561   1.00
H2       0.55410    0.92491    0.76578   1.00
C5       0.50306    0.96218    0.77528   1.00
C5       0.49377    0.95659    0.73168   1.00
H2       0.51485    0.99210    0.77985   1.00
O3       0.68500    0.98576    0.91214   1.00
C4       0.64400    0.91465    0.91523   1.00
C3c      0.62257    0.91256    0.88037   1.00
H1       0.63775    0.91079    0.85278   1.00
C3d      0.62365    0.91637    0.95091   1.00
C3       0.58146    0.91327    0.88042   1.00
O2       0.56252    0.90633    0.84570   1.00
C3       0.58273    0.91784    0.95102   1.00
H1       0.56843    0.92056    0.97900   1.00
C2       0.56061    0.91618    0.91601   1.00
C5       0.68621    1.00500    0.94855   1.00
H2       0.71662    1.01189    0.95781   1.00
H2       0.67234    0.98692    0.97182   1.00
C5       0.66371    1.04315    0.94440   1.00
H2       0.63363    1.03633    0.93409   1.00
H2       0.67802    1.06110    0.92136   1.00
C5       0.66238    1.06544    0.98338   1.00
H2       0.69232    1.07210    0.99399   1.00
H2       0.64689    1.04809    1.00604   1.00
C5       0.64055    1.10435    0.97811   1.00
C5       0.65395    0.88468    1.00099   1.00
C5       0.55430    0.94209    0.82683   1.00
H2       0.67412    0.86905    0.98094   1.00
H2       0.62788    0.86591    1.00629   1.00
H2       0.58200    0.95777    0.81997   1.00
H2       0.53605    0.96200    0.84517   1.00
H2       0.47470    0.95924    0.79115   1.00
H2       0.72253    0.84879    1.03446   1.00
H2       0.67737    0.82935    1.05437   1.00
C2       0.76895    0.91705    0.91672   1.00
C3       0.74903    0.88099    0.91620   1.00
O2       0.76826    0.84698    0.92588   1.00
C3       0.74674    0.95181    0.91479   1.00
H1       0.76115    0.97985    0.91412   1.00
C3a      0.70787    0.88045    0.91481   1.00
H1       0.69298    0.85269    0.91668   1.00
C3b      0.70578    0.95119    0.91468   1.00
C4       0.68600    0.91535    0.91477   1.00
O3       0.64333    0.92145    0.98581   1.00
C5       0.77780    0.82584    0.89186   1.00
H2       0.75109    0.81810    0.87487   1.00
C5       0.79826    0.78858    0.90498   1.00
H2       0.79774    0.84297    0.87271   1.00
H2       0.77568    0.76730    0.91464   1.00
H2       0.81593    0.79591    0.93126   1.00
C5       0.82418    0.77062    0.87299   1.00
H2       0.80676    0.76637    0.84597   1.00
C5       0.84047    0.73087    0.88611   1.00
H2       0.84993    0.78959    0.86649   1.00
C5       0.67483    0.89167    1.03964   1.00
H2       0.65285    0.90104    1.06168   1.00
H2       0.69548    0.91648    1.03572   1.00
C5       0.69700    0.85520    1.05365   1.00
C5       0.71275    0.86187    1.09519   1.00
H2       0.47214    0.93159    0.72807   1.00
C5       0.47588    0.99437    0.71522   1.00
H2       0.52177    0.94949    0.71520   1.00
C5       0.63163    1.12210    1.01840   1.00
H2       0.65949    1.12540    0.96066   1.00
H2       0.61207    1.09896    0.96182   1.00
C5       0.86003    0.71044    0.85120   1.00
H2       0.86289    0.73549    0.91023   1.00
H2       0.81563    0.71193    0.89753   1.00
H2       0.72898    0.89087    1.09637   1.00
H2       0.68739    0.86247    1.11670   1.00
C5       0.74083    0.82854    1.10609   1.00
H2       0.46384    1.01273    0.74020   1.00
H2       0.49929    1.01161    0.69908   1.00
H2       0.45126    0.98673    0.69420   1.00
H2       0.64680    1.10422    1.04199   1.00
H2       0.64271    1.15344    1.01941   1.00
H2       0.59879    1.12177    1.02364   1.00
H2       0.87611    0.73297    0.83276   1.00
H2       0.88164    0.68775    0.86233   1.00
H2       0.83681    0.69549    0.83267   1.00
H2       0.77193    0.83717    1.09807   1.00
H2       0.73902    0.82275    1.13879   1.00
H2       0.73234    0.80101    1.08947   1.00
C5       1.29718    0.93159    1.04069   1.00
H2       1.31245    0.90372    1.03439   1.00
H2       1.27590    0.92491    1.06422   1.00
C5       1.32694    0.96218    1.05472   1.00
C5       1.33623    0.95659    1.09832   1.00
H2       1.31515    0.99210    1.05015   1.00
O3       1.14500    0.98576    0.91786   1.00
C4       1.18600    0.91465    0.91477   1.00
C3c      1.20743    0.91256    0.94963   1.00
H1       1.19225    0.91079    0.97722   1.00
C3d      1.20635    0.91637    0.87909   1.00
C3       1.24854    0.91327    0.94958   1.00
O2       1.26748    0.90633    0.98430   1.00
C3       1.24727    0.91784    0.87898   1.00
H1       1.26157    0.92056    0.85100   1.00
C2       1.26939    0.91618    0.91399   1.00
C5       1.14379    1.00500    0.88145   1.00
H2       1.11338    1.01189    0.87219   1.00
H2       1.15766    0.98692    0.85818   1.00
C5       1.16629    1.04315    0.88560   1.00
H2       1.19637    1.03633    0.89591   1.00
H2       1.15198    1.06110    0.90864   1.00
C5       1.16762    1.06544    0.84662   1.00
H2       1.13768    1.07210    0.83601   1.00
H2       1.18311    1.04809    0.82396   1.00
C5       1.18945    1.10435    0.85189   1.00
C5       1.17605    0.88468    0.82901   1.00
C5       1.27570    0.94209    1.00317   1.00
H2       1.15588    0.86905    0.84906   1.00
H2       1.20212    0.86591    0.82371   1.00
H2       1.24800    0.95777    1.01003   1.00
H2       1.29395    0.96200    0.98483   1.00
H2       1.35530    0.95924    1.03885   1.00
H2       1.10747    0.84879    0.79554   1.00
H2       1.15263    0.82935    0.77563   1.00
C2       1.06105    0.91705    0.91328   1.00
C3       1.08097    0.88099    0.91380   1.00
O2       1.06174    0.84698    0.90412   1.00
C3       1.08326    0.95181    0.91521   1.00
H1       1.06885    0.97985    0.91588   1.00
C3a      1.12213    0.88045    0.91519   1.00
H1       1.13702    0.85269    0.91332   1.00
C3b      1.12422    0.95119    0.91532   1.00
C4       1.14400    0.91535    0.91523   1.00
O3       1.18667    0.92145    0.84419   1.00
C5       1.05220    0.82584    0.93814   1.00
H2       1.07891    0.81810    0.95513   1.00
C5       1.03174    0.78858    0.92502   1.00
H2       1.03226    0.84297    0.95729   1.00
H2       1.05432    0.76730    0.91536   1.00
H2       1.01407    0.79591    0.89874   1.00
C5       1.00582    0.77062    0.95701   1.00
H2       1.02324    0.76637    0.98403   1.00
C5       0.98953    0.73087    0.94389   1.00
H2       0.98007    0.78959    0.96351   1.00
C5       1.15517    0.89167    0.79036   1.00
H2       1.17715    0.90104    0.76832   1.00
H2       1.13452    0.91648    0.79428   1.00
C5       1.13300    0.85520    0.77635   1.00
C5       1.11725    0.86187    0.73481   1.00
H2       1.35786    0.93159    1.10193   1.00
C5       1.35412    0.99437    1.11478   1.00
H2       1.30823    0.94949    1.11480   1.00
C5       1.19837    1.12210    0.81160   1.00
H2       1.17051    1.12540    0.86934   1.00
H2       1.21793    1.09896    0.86818   1.00
C5       0.96997    0.71044    0.97880   1.00
H2       0.96711    0.73549    0.91977   1.00
H2       1.01437    0.71193    0.93247   1.00
H2       1.10102    0.89087    0.73363   1.00
H2       1.14261    0.86247    0.71330   1.00
C5       1.08917    0.82854    0.72391   1.00
H2       1.36616    1.01273    1.08980   1.00
H2       1.33071    1.01161    1.13092   1.00
H2       1.37874    0.98673    1.13580   1.00
H2       1.18320    1.10422    0.78801   1.00
H2       1.18729    1.15344    0.81059   1.00
H2       1.23121    1.12177    0.80636   1.00
H2       0.95389    0.73297    0.99724   1.00
H2       0.94836    0.68775    0.96767   1.00
H2       0.99319    0.69549    0.99733   1.00
H2       1.05807    0.83717    0.73193   1.00
H2       1.09098    0.82275    0.69121   1.00
H2       1.09766    0.80101    0.74053   1.00
C5       0.78931    0.53282    0.93159   1.00
H2       0.79561    0.51755    0.90372   1.00
H2       0.76578    0.55410    0.92491   1.00
C5       0.77528    0.50306    0.96218   1.00
C5       0.73168    0.49377    0.95659   1.00
H2       0.77985    0.51485    0.99210   1.00
O3       0.91214    0.68500    0.98576   1.00
C4       0.91523    0.64400    0.91465   1.00
C3c      0.88037    0.62257    0.91256   1.00
H1       0.85278    0.63775    0.91079   1.00
C3d      0.95091    0.62365    0.91637   1.00
C3       0.88042    0.58146    0.91327   1.00
O2       0.84570    0.56252    0.90633   1.00
C3       0.95102    0.58273    0.91784   1.00
H1       0.97900    0.56843    0.92056   1.00
C2       0.91601    0.56061    0.91618   1.00
C5       0.94855    0.68621    1.00500   1.00
H2       0.95781    0.71662    1.01189   1.00
H2       0.97182    0.67234    0.98692   1.00
C5       0.94440    0.66371    1.04315   1.00
H2       0.93409    0.63363    1.03633   1.00
H2       0.92136    0.67802    1.06110   1.00
C5       0.98338    0.66238    1.06544   1.00
H2       0.99399    0.69232    1.07210   1.00
H2       1.00604    0.64689    1.04809   1.00
C5       0.97811    0.64055    1.10435   1.00
C5       1.00099    0.65395    0.88468   1.00
C5       0.82683    0.55430    0.94209   1.00
H2       0.98094    0.67412    0.86905   1.00
H2       1.00629    0.62788    0.86591   1.00
H2       0.81997    0.58200    0.95777   1.00
H2       0.84517    0.53605    0.96200   1.00
H2       0.79115    0.47470    0.95924   1.00
H2       1.03446    0.72253    0.84879   1.00
H2       1.05437    0.67737    0.82935   1.00
C2       0.91672    0.76895    0.91705   1.00
C3       0.91620    0.74903    0.88099   1.00
O2       0.92588    0.76826    0.84698   1.00
C3       0.91479    0.74674    0.95181   1.00
H1       0.91412    0.76115    0.97985   1.00
C3a      0.91481    0.70787    0.88045   1.00
H1       0.91668    0.69298    0.85269   1.00
C3b      0.91468    0.70578    0.95119   1.00
C4       0.91477    0.68600    0.91535   1.00
O3       0.98581    0.64333    0.92145   1.00
C5       0.89186    0.77780    0.82584   1.00
H2       0.87487    0.75109    0.81810   1.00
C5       0.90498    0.79826    0.78858   1.00
H2       0.87271    0.79774    0.84297   1.00
H2       0.91464    0.77568    0.76730   1.00
H2       0.93126    0.81593    0.79591   1.00
C5       0.87299    0.82418    0.77062   1.00
H2       0.84597    0.80676    0.76637   1.00
C5       0.88611    0.84047    0.73087   1.00
H2       0.86649    0.84993    0.78959   1.00
C5       1.03964    0.67483    0.89167   1.00
H2       1.06168    0.65285    0.90104   1.00
H2       1.03572    0.69548    0.91648   1.00
C5       1.05365    0.69700    0.85520   1.00
C5       1.09519    0.71275    0.86187   1.00
H2       0.72807    0.47214    0.93159   1.00
C5       0.71522    0.47588    0.99437   1.00
H2       0.71520    0.52177    0.94949   1.00
C5       1.01840    0.63163    1.12210   1.00
H2       0.96066    0.65949    1.12540   1.00
H2       0.96182    0.61207    1.09896   1.00
C5       0.85120    0.86003    0.71044   1.00
H2       0.91023    0.86289    0.73549   1.00
H2       0.89753    0.81563    0.71193   1.00
H2       1.09637    0.72898    0.89087   1.00
H2       1.11670    0.68739    0.86247   1.00
C5       1.10609    0.74083    0.82854   1.00
H2       0.74020    0.46384    1.01273   1.00
H2       0.69908    0.49929    1.01161   1.00
H2       0.69420    0.45126    0.98673   1.00
H2       1.04199    0.64680    1.10422   1.00
H2       1.01941    0.64271    1.15344   1.00
H2       1.02364    0.59879    1.12177   1.00
H2       0.83276    0.87611    0.73297   1.00
H2       0.86233    0.88164    0.68775   1.00
H2       0.83267    0.83681    0.69549   1.00
H2       1.09807    0.77193    0.83717   1.00
H2       1.13879    0.73902    0.82275   1.00
H2       1.08947    0.73234    0.80101   1.00
C5       0.93159    0.78931    0.53282   1.00
H2       0.90372    0.79561    0.51755   1.00
H2       0.92491    0.76578    0.55410   1.00
C5       0.96218    0.77528    0.50306   1.00
C5       0.95659    0.73168    0.49377   1.00
H2       0.99210    0.77985    0.51485   1.00
O3       0.98576    0.91214    0.68500   1.00
C4       0.91465    0.91523    0.64400   1.00
C3c      0.91256    0.88037    0.62257   1.00
H1       0.91079    0.85278    0.63775   1.00
C3d      0.91637    0.95091    0.62365   1.00
C3       0.91327    0.88042    0.58146   1.00
O2       0.90633    0.84570    0.56252   1.00
C3       0.91784    0.95102    0.58273   1.00
H1       0.92056    0.97900    0.56843   1.00
C2       0.91618    0.91601    0.56061   1.00
C5       1.00500    0.94855    0.68621   1.00
H2       1.01189    0.95781    0.71662   1.00
H2       0.98692    0.97182    0.67234   1.00
C5       1.04315    0.94440    0.66371   1.00
H2       1.03633    0.93409    0.63363   1.00
H2       1.06110    0.92136    0.67802   1.00
C5       1.06544    0.98338    0.66238   1.00
H2       1.07210    0.99399    0.69232   1.00
H2       1.04809    1.00604    0.64689   1.00
C5       1.10435    0.97811    0.64055   1.00
C5       0.88468    1.00099    0.65395   1.00
C5       0.94209    0.82683    0.55430   1.00
H2       0.86905    0.98094    0.67412   1.00
H2       0.86591    1.00629    0.62788   1.00
H2       0.95777    0.81997    0.58200   1.00
H2       0.96200    0.84517    0.53605   1.00
H2       0.95924    0.79115    0.47470   1.00
H2       0.84879    1.03446    0.72253   1.00
H2       0.82935    1.05437    0.67737   1.00
C2       0.91705    0.91672    0.76895   1.00
C3       0.88099    0.91620    0.74903   1.00
O2       0.84698    0.92588    0.76826   1.00
C3       0.95181    0.91479    0.74674   1.00
H1       0.97985    0.91412    0.76115   1.00
C3a      0.88045    0.91481    0.70787   1.00
H1       0.85269    0.91668    0.69298   1.00
C3b      0.95119    0.91468    0.70578   1.00
C4       0.91535    0.91477    0.68600   1.00
O3       0.92145    0.98581    0.64333   1.00
C5       0.82584    0.89186    0.77780   1.00
H2       0.81810    0.87487    0.75109   1.00
C5       0.78858    0.90498    0.79826   1.00
H2       0.84297    0.87271    0.79774   1.00
H2       0.76730    0.91464    0.77568   1.00
H2       0.79591    0.93126    0.81593   1.00
C5       0.77062    0.87299    0.82418   1.00
H2       0.76637    0.84597    0.80676   1.00
C5       0.73087    0.88611    0.84047   1.00
H2       0.78959    0.86649    0.84993   1.00
C5       0.89167    1.03964    0.67483   1.00
H2       0.90104    1.06168    0.65285   1.00
H2       0.91648    1.03572    0.69548   1.00
C5       0.85520    1.05365    0.69700   1.00
C5       0.86187    1.09519    0.71275   1.00
H2       0.93159    0.72807    0.47214   1.00
C5       0.99437    0.71522    0.47588   1.00
H2       0.94949    0.71520    0.52177   1.00
C5       1.12210    1.01840    0.63163   1.00
H2       1.12540    0.96066    0.65949   1.00
H2       1.09896    0.96182    0.61207   1.00
C5       0.71044    0.85120    0.86003   1.00
H2       0.73549    0.91023    0.86289   1.00
H2       0.71193    0.89753    0.81563   1.00
H2       0.89087    1.09637    0.72898   1.00
H2       0.86247    1.11670    0.68739   1.00
C5       0.82854    1.10609    0.74083   1.00
H2       1.01273    0.74020    0.46384   1.00
H2       1.01161    0.69908    0.49929   1.00
H2       0.98673    0.69420    0.45126   1.00
H2       1.10422    1.04199    0.64680   1.00
H2       1.15344    1.01941    0.64271   1.00
H2       1.12177    1.02364    0.59879   1.00
H2       0.73297    0.83276    0.87611   1.00
H2       0.68775    0.86233    0.88164   1.00
H2       0.69549    0.83267    0.83681   1.00
H2       0.83717    1.09807    0.77193   1.00
H2       0.82275    1.13879    0.73902   1.00
H2       0.80101    1.08947    0.73234   1.00
C5       0.43159    0.54069    1.29718   1.00
H2       0.40372    0.53439    1.31245   1.00
H2       0.42491    0.56422    1.27590   1.00
C5       0.46218    0.55472    1.32694   1.00
C5       0.45659    0.59832    1.33623   1.00
H2       0.49210    0.55015    1.31515   1.00
O3       0.48576    0.41786    1.14500   1.00
C4       0.41465    0.41477    1.18600   1.00
C3c      0.41256    0.44963    1.20743   1.00
H1       0.41079    0.47722    1.19225   1.00
C3d      0.41637    0.37909    1.20635   1.00
C3       0.41327    0.44958    1.24854   1.00
O2       0.40633    0.48430    1.26748   1.00
C3       0.41784    0.37898    1.24727   1.00
H1       0.42056    0.35100    1.26157   1.00
C2       0.41618    0.41399    1.26939   1.00
C5       0.50500    0.38145    1.14379   1.00
H2       0.51189    0.37219    1.11338   1.00
H2       0.48692    0.35818    1.15766   1.00
C5       0.54315    0.38560    1.16629   1.00
H2       0.53633    0.39591    1.19637   1.00
H2       0.56110    0.40864    1.15198   1.00
C5       0.56544    0.34662    1.16762   1.00
H2       0.57210    0.33601    1.13768   1.00
H2       0.54809    0.32396    1.18311   1.00
C5       0.60435    0.35189    1.18945   1.00
C5       0.38468    0.32901    1.17605   1.00
C5       0.44209    0.50317    1.27570   1.00
H2       0.36905    0.34906    1.15588   1.00
H2       0.36591    0.32371    1.20212   1.00
H2       0.45777    0.51003    1.24800   1.00
H2       0.46200    0.48483    1.29395   1.00
H2       0.45924    0.53885    1.35530   1.00
H2       0.34879    0.29554    1.10747   1.00
H2       0.32935    0.27563    1.15263   1.00
C2       0.41705    0.41328    1.06105   1.00
C3       0.38099    0.41380    1.08097   1.00
O2       0.34698    0.40412    1.06174   1.00
C3       0.45181    0.41521    1.08326   1.00
H1       0.47985    0.41588    1.06885   1.00
C3a      0.38045    0.41519    1.12213   1.00
H1       0.35269    0.41332    1.13702   1.00
C3b      0.45119    0.41532    1.12422   1.00
C4       0.41535    0.41523    1.14400   1.00
O3       0.42145    0.34419    1.18667   1.00
C5       0.32584    0.43814    1.05220   1.00
H2       0.31810    0.45513    1.07891   1.00
C5       0.28858    0.42502    1.03174   1.00
H2       0.34297    0.45729    1.03226   1.00
H2       0.26730    0.41536    1.05432   1.00
H2       0.29591    0.39874    1.01407   1.00
C5       0.27062    0.45701    1.00582   1.00
H2       0.26637    0.48403    1.02324   1.00
C5       0.23087    0.44389    0.98953   1.00
H2       0.28959    0.46351    0.98007   1.00
C5       0.39167    0.29036    1.15517   1.00
H2       0.40104    0.26832    1.17715   1.00
H2       0.41648    0.29428    1.13452   1.00
C5       0.35520    0.27635    1.13300   1.00
C5       0.36187    0.23481    1.11725   1.00
H2       0.43159    0.60193    1.35786   1.00
C5       0.49437    0.61478    1.35412   1.00
H2       0.44949    0.61480    1.30823   1.00
C5       0.62210    0.31160    1.19837   1.00
H2       0.62540    0.36934    1.17051   1.00
H2       0.59896    0.36818    1.21793   1.00
C5       0.21044    0.47880    0.96997   1.00
H2       0.23549    0.41977    0.96711   1.00
H2       0.21193    0.43247    1.01437   1.00
H2       0.39087    0.23363    1.10102   1.00
H2       0.36247    0.21330    1.14261   1.00
C5       0.32854    0.22391    1.08917   1.00
H2       0.51273    0.58980    1.36616   1.00
H2       0.51161    0.63092    1.33071   1.00
H2       0.48673    0.63580    1.37874   1.00
H2       0.60422    0.28801    1.18320   1.00
H2       0.65344    0.31059    1.18729   1.00
H2       0.62177    0.30636    1.23121   1.00
H2       0.23297    0.49724    0.95389   1.00
H2       0.18775    0.46767    0.94836   1.00
H2       0.19549    0.49733    0.99319   1.00
H2       0.33717    0.23193    1.05807   1.00
H2       0.32275    0.19121    1.09098   1.00
H2       0.30101    0.24053    1.09766   1.00
C5       0.54069    0.79718    0.93159   1.00
H2       0.53439    0.81245    0.90372   1.00
H2       0.56422    0.77590    0.92491   1.00
C5       0.55472    0.82694    0.96218   1.00
C5       0.59832    0.83623    0.95659   1.00
H2       0.55015    0.81515    0.99210   1.00
O3       0.41786    0.64500    0.98576   1.00
C4       0.41477    0.68600    0.91465   1.00
C3c      0.44963    0.70743    0.91256   1.00
H1       0.47722    0.69225    0.91079   1.00
C3d      0.37909    0.70635    0.91637   1.00
C3       0.44958    0.74854    0.91327   1.00
O2       0.48430    0.76748    0.90633   1.00
C3       0.37898    0.74727    0.91784   1.00
H1       0.35100    0.76157    0.92056   1.00
C2       0.41399    0.76939    0.91618   1.00
C5       0.38145    0.64379    1.00500   1.00
H2       0.37219    0.61338    1.01189   1.00
H2       0.35818    0.65766    0.98692   1.00
C5       0.38560    0.66629    1.04315   1.00
H2       0.39591    0.69637    1.03633   1.00
H2       0.40864    0.65198    1.06110   1.00
C5       0.34662    0.66762    1.06544   1.00
H2       0.33601    0.63768    1.07210   1.00
H2       0.32396    0.68311    1.04809   1.00
C5       0.35189    0.68945    1.10435   1.00
C5       0.32901    0.67605    0.88468   1.00
C5       0.50317    0.77570    0.94209   1.00
H2       0.34906    0.65588    0.86905   1.00
H2       0.32371    0.70212    0.86591   1.00
H2       0.51003    0.74800    0.95777   1.00
H2       0.48483    0.79395    0.96200   1.00
H2       0.53885    0.85530    0.95924   1.00
H2       0.29554    0.60747    0.84879   1.00
H2       0.27563    0.65263    0.82935   1.00
C2       0.41328    0.56105    0.91705   1.00
C3       0.41380    0.58097    0.88099   1.00
O2       0.40412    0.56174    0.84698   1.00
C3       0.41521    0.58326    0.95181   1.00
H1       0.41588    0.56885    0.97985   1.00
C3a      0.41519    0.62213    0.88045   1.00
H1       0.41332    0.63702    0.85269   1.00
C3b      0.41532    0.62422    0.95119   1.00
C4       0.41523    0.64400    0.91535   1.00
O3       0.34419    0.68667    0.92145   1.00
C5       0.43814    0.55220    0.82584   1.00
H2       0.45513    0.57891    0.81810   1.00
C5       0.42502    0.53174    0.78858   1.00
H2       0.45729    0.53226    0.84297   1.00
H2       0.41536    0.55432    0.76730   1.00
H2       0.39874    0.51407    0.79591   1.00
C5       0.45701    0.50582    0.77062   1.00
H2       0.48403    0.52324    0.76637   1.00
C5       0.44389    0.48953    0.73087   1.00
H2       0.46351    0.48007    0.78959   1.00
C5       0.29036    0.65517    0.89167   1.00
H2       0.26832    0.67715    0.90104   1.00
H2       0.29428    0.63452    0.91648   1.00
C5       0.27635    0.63300    0.85520   1.00
C5       0.23481    0.61725    0.86187   1.00
H2       0.60193    0.85786    0.93159   1.00
C5       0.61478    0.85412    0.99437   1.00
H2       0.61480    0.80823    0.94949   1.00
C5       0.31160    0.69837    1.12210   1.00
H2       0.36934    0.67051    1.12540   1.00
H2       0.36818    0.71793    1.09896   1.00
C5       0.47880    0.46997    0.71044   1.00
H2       0.41977    0.46711    0.73549   1.00
H2       0.43247    0.51437    0.71193   1.00
H2       0.23363    0.60102    0.89087   1.00
H2       0.21330    0.64261    0.86247   1.00
C5       0.22391    0.58917    0.82854   1.00
H2       0.58980    0.86616    1.01273   1.00
H2       0.63092    0.83071    1.01161   1.00
H2       0.63580    0.87874    0.98673   1.00
H2       0.28801    0.68320    1.10422   1.00
H2       0.31059    0.68729    1.15344   1.00
H2       0.30636    0.73121    1.12177   1.00
H2       0.49724    0.45389    0.73297   1.00
H2       0.46767    0.44836    0.68775   1.00
H2       0.49733    0.49319    0.69549   1.00
H2       0.23193    0.55807    0.83717   1.00
H2       0.19121    0.59098    0.82275   1.00
H2       0.24053    0.59766    0.80101   1.00
C5       0.03282    0.43159    0.78931   1.00
H2       0.01755    0.40372    0.79561   1.00
H2       0.05410    0.42491    0.76578   1.00
C5       0.00306    0.46218    0.77528   1.00
C5       -0.00623   0.45659    0.73168   1.00
H2       0.01485    0.49210    0.77985   1.00
O3       0.18500    0.48576    0.91214   1.00
C4       0.14400    0.41465    0.91523   1.00
C3c      0.12257    0.41256    0.88037   1.00
H1       0.13775    0.41079    0.85278   1.00
C3d      0.12365    0.41637    0.95091   1.00
C3       0.08146    0.41327    0.88042   1.00
O2       0.06252    0.40633    0.84570   1.00
C3       0.08273    0.41784    0.95102   1.00
H1       0.06843    0.42056    0.97900   1.00
C2       0.06061    0.41618    0.91601   1.00
C5       0.18621    0.50500    0.94855   1.00
H2       0.21662    0.51189    0.95781   1.00
H2       0.17234    0.48692    0.97182   1.00
C5       0.16371    0.54315    0.94440   1.00
H2       0.13363    0.53633    0.93409   1.00
H2       0.17802    0.56110    0.92136   1.00
C5       0.16238    0.56544    0.98338   1.00
H2       0.19232    0.57210    0.99399   1.00
H2       0.14689    0.54809    1.00604   1.00
C5       0.14055    0.60435    0.97811   1.00
C5       0.15395    0.38468    1.00099   1.00
C5       0.05430    0.44209    0.82683   1.00
H2       0.17412    0.36905    0.98094   1.00
H2       0.12788    0.36591    1.00629   1.00
H2       0.08200    0.45777    0.81997   1.00
H2       0.03605    0.46200    0.84517   1.00
H2       -0.02530   0.45924    0.79115   1.00
H2       0.22253    0.34879    1.03446   1.00
H2       0.17737    0.32935    1.05437   1.00
C2       0.26895    0.41705    0.91672   1.00
C3       0.24903    0.38099    0.91620   1.00
O2       0.26826    0.34698    0.92588   1.00
C3       0.24674    0.45181    0.91479   1.00
H1       0.26115    0.47985    0.91412   1.00
C3a      0.20787    0.38045    0.91481   1.00
H1       0.19298    0.35269    0.91668   1.00
C3b      0.20578    0.45119    0.91468   1.00
C4       0.18600    0.41535    0.91477   1.00
O3       0.14333    0.42145    0.98581   1.00
C5       0.27780    0.32584    0.89186   1.00
H2       0.25109    0.31810    0.87487   1.00
C5       0.29826    0.28858    0.90498   1.00
H2       0.29774    0.34297    0.87271   1.00
H2       0.27568    0.26730    0.91464   1.00
H2       0.31593    0.29591    0.93126   1.00
C5       0.32418    0.27062    0.87299   1.00
H2       0.30676    0.26637    0.84597   1.00
C5       0.34047    0.23087    0.88611   1.00
H2       0.34993    0.28959    0.86649   1.00
C5       0.17483    0.39167    1.03964   1.00
H2       0.15285    0.40104    1.06168   1.00
H2       0.19548    0.41648    1.03572   1.00
C5       0.19700    0.35520    1.05365   1.00
C5       0.21275    0.36187    1.09519   1.00
H2       -0.02786   0.43159    0.72807   1.00
C5       -0.02412   0.49437    0.71522   1.00
H2       0.02177    0.44949    0.71520   1.00
C5       0.13163    0.62210    1.01840   1.00
H2       0.15949    0.62540    0.96066   1.00
H2       0.11207    0.59896    0.96182   1.00
C5       0.36003    0.21044    0.85120   1.00
H2       0.36289    0.23549    0.91023   1.00
H2       0.31563    0.21193    0.89753   1.00
H2       0.22898    0.39087    1.09637   1.00
H2       0.18739    0.36247    1.11670   1.00
C5       0.24083    0.32854    1.10609   1.00
H2       -0.03616   0.51273    0.74020   1.00
H2       -0.00071   0.51161    0.69908   1.00
H2       -0.04874   0.48673    0.69420   1.00
H2       0.14680    0.60422    1.04199   1.00
H2       0.14271    0.65344    1.01941   1.00
H2       0.09879    0.62177    1.02364   1.00
H2       0.37611    0.23297    0.83276   1.00
H2       0.38164    0.18775    0.86233   1.00
H2       0.33681    0.19549    0.83267   1.00
H2       0.27193    0.33717    1.09807   1.00
H2       0.23902    0.32275    1.13879   1.00
H2       0.23234    0.30101    1.08947   1.00
C5       0.79718    0.43159    1.04069   1.00
H2       0.81245    0.40372    1.03439   1.00
H2       0.77590    0.42491    1.06422   1.00
C5       0.82694    0.46218    1.05472   1.00
C5       0.83623    0.45659    1.09832   1.00
H2       0.81515    0.49210    1.05015   1.00
O3       0.64500    0.48576    0.91786   1.00
C4       0.68600    0.41465    0.91477   1.00
C3c      0.70743    0.41256    0.94963   1.00
H1       0.69225    0.41079    0.97722   1.00
C3d      0.70635    0.41637    0.87909   1.00
C3       0.74854    0.41327    0.94958   1.00
O2       0.76748    0.40633    0.98430   1.00
C3       0.74727    0.41784    0.87898   1.00
H1       0.76157    0.42056    0.85100   1.00
C2       0.76939    0.41618    0.91399   1.00
C5       0.64379    0.50500    0.88145   1.00
H2       0.61338    0.51189    0.87219   1.00
H2       0.65766    0.48692    0.85818   1.00
C5       0.66629    0.54315    0.88560   1.00
H2       0.69637    0.53633    0.89591   1.00
H2       0.65198    0.56110    0.90864   1.00
C5       0.66762    0.56544    0.84662   1.00
H2       0.63768    0.57210    0.83601   1.00
H2       0.68311    0.54809    0.82396   1.00
C5       0.68945    0.60435    0.85189   1.00
C5       0.67605    0.38468    0.82901   1.00
C5       0.77570    0.44209    1.00317   1.00
H2       0.65588    0.36905    0.84906   1.00
H2       0.70212    0.36591    0.82371   1.00
H2       0.74800    0.45777    1.01003   1.00
H2       0.79395    0.46200    0.98483   1.00
H2       0.85530    0.45924    1.03885   1.00
H2       0.60747    0.34879    0.79554   1.00
H2       0.65263    0.32935    0.77563   1.00
C2       0.56105    0.41705    0.91328   1.00
C3       0.58097    0.38099    0.91380   1.00
O2       0.56174    0.34698    0.90412   1.00
C3       0.58326    0.45181    0.91521   1.00
H1       0.56885    0.47985    0.91588   1.00
C3a      0.62213    0.38045    0.91519   1.00
H1       0.63702    0.35269    0.91332   1.00
C3b      0.62422    0.45119    0.91532   1.00
C4       0.64400    0.41535    0.91523   1.00
O3       0.68667    0.42145    0.84419   1.00
C5       0.55220    0.32584    0.93814   1.00
H2       0.57891    0.31810    0.95513   1.00
C5       0.53174    0.28858    0.92502   1.00
H2       0.53226    0.34297    0.95729   1.00
H2       0.55432    0.26730    0.91536   1.00
H2       0.51407    0.29591    0.89874   1.00
C5       0.50582    0.27062    0.95701   1.00
H2       0.52324    0.26637    0.98403   1.00
C5       0.48953    0.23087    0.94389   1.00
H2       0.48007    0.28959    0.96351   1.00
C5       0.65517    0.39167    0.79036   1.00
H2       0.67715    0.40104    0.76832   1.00
H2       0.63452    0.41648    0.79428   1.00
C5       0.63300    0.35520    0.77635   1.00
C5       0.61725    0.36187    0.73481   1.00
H2       0.85786    0.43159    1.10193   1.00
C5       0.85412    0.49437    1.11478   1.00
H2       0.80823    0.44949    1.11480   1.00
C5       0.69837    0.62210    0.81160   1.00
H2       0.67051    0.62540    0.86934   1.00
H2       0.71793    0.59896    0.86818   1.00
C5       0.46997    0.21044    0.97880   1.00
H2       0.46711    0.23549    0.91977   1.00
H2       0.51437    0.21193    0.93247   1.00
H2       0.60102    0.39087    0.73363   1.00
H2       0.64261    0.36247    0.71330   1.00
C5       0.58917    0.32854    0.72391   1.00
H2       0.86616    0.51273    1.08980   1.00
H2       0.83071    0.51161    1.13092   1.00
H2       0.87874    0.48673    1.13580   1.00
H2       0.68320    0.60422    0.78801   1.00
H2       0.68729    0.65344    0.81059   1.00
H2       0.73121    0.62177    0.80636   1.00
H2       0.45389    0.23297    0.99724   1.00
H2       0.44836    0.18775    0.96767   1.00
H2       0.49319    0.19549    0.99733   1.00
H2       0.55807    0.33717    0.73193   1.00
H2       0.59098    0.32275    0.69121   1.00
H2       0.59766    0.30101    0.74053   1.00
C5       0.28931    0.03282    0.93159   1.00
H2       0.29561    0.01755    0.90372   1.00
H2       0.26578    0.05410    0.92491   1.00
C5       0.27528    0.00306    0.96218   1.00
C5       0.23168    -0.00623   0.95659   1.00
H2       0.27985    0.01485    0.99210   1.00
O3       0.41214    0.18500    0.98576   1.00
C4       0.41523    0.14400    0.91465   1.00
C3c      0.38037    0.12257    0.91256   1.00
H1       0.35278    0.13775    0.91079   1.00
C3d      0.45091    0.12365    0.91637   1.00
C3       0.38042    0.08146    0.91327   1.00
O2       0.34570    0.06252    0.90633   1.00
C3       0.45102    0.08273    0.91784   1.00
H1       0.47900    0.06843    0.92056   1.00
C2       0.41601    0.06061    0.91618   1.00
C5       0.44855    0.18621    1.00500   1.00
H2       0.45781    0.21662    1.01189   1.00
H2       0.47182    0.17234    0.98692   1.00
C5       0.44440    0.16371    1.04315   1.00
H2       0.43409    0.13363    1.03633   1.00
H2       0.42136    0.17802    1.06110   1.00
C5       0.48338    0.16238    1.06544   1.00
H2       0.49399    0.19232    1.07210   1.00
H2       0.50604    0.14689    1.04809   1.00
C5       0.47811    0.14055    1.10435   1.00
C5       0.50099    0.15395    0.88468   1.00
C5       0.32683    0.05430    0.94209   1.00
H2       0.48094    0.17412    0.86905   1.00
H2       0.50629    0.12788    0.86591   1.00
H2       0.31997    0.08200    0.95777   1.00
H2       0.34517    0.03605    0.96200   1.00
H2       0.29115    -0.02530   0.95924   1.00
H2       0.53446    0.22253    0.84879   1.00
H2       0.55437    0.17737    0.82935   1.00
C2       0.41672    0.26895    0.91705   1.00
C3       0.41620    0.24903    0.88099   1.00
O2       0.42588    0.26826    0.84698   1.00
C3       0.41479    0.24674    0.95181   1.00
H1       0.41412    0.26115    0.97985   1.00
C3a      0.41481    0.20787    0.88045   1.00
H1       0.41668    0.19298    0.85269   1.00
C3b      0.41468    0.20578    0.95119   1.00
C4       0.41477    0.18600    0.91535   1.00
O3       0.48581    0.14333    0.92145   1.00
C5       0.39186    0.27780    0.82584   1.00
H2       0.37487    0.25109    0.81810   1.00
C5       0.40498    0.29826    0.78858   1.00
H2       0.37271    0.29774    0.84297   1.00
H2       0.41464    0.27568    0.76730   1.00
H2       0.43126    0.31593    0.79591   1.00
C5       0.37299    0.32418    0.77062   1.00
H2       0.34597    0.30676    0.76637   1.00
C5       0.38611    0.34047    0.73087   1.00
H2       0.36649    0.34993    0.78959   1.00
C5       0.53964    0.17483    0.89167   1.00
H2       0.56168    0.15285    0.90104   1.00
H2       0.53572    0.19548    0.91648   1.00
C5       0.55365    0.19700    0.85520   1.00
C5       0.59519    0.21275    0.86187   1.00
H2       0.22807    -0.02786   0.93159   1.00
C5       0.21522    -0.02412   0.99437   1.00
H2       0.21520    0.02177    0.94949   1.00
C5       0.51840    0.13163    1.12210   1.00
H2       0.46066    0.15949    1.12540   1.00
H2       0.46182    0.11207    1.09896   1.00
C5       0.35120    0.36003    0.71044   1.00
H2       0.41023    0.36289    0.73549   1.00
H2       0.39753    0.31563    0.71193   1.00
H2       0.59637    0.22898    0.89087   1.00
H2       0.61670    0.18739    0.86247   1.00
C5       0.60609    0.24083    0.82854   1.00
H2       0.24020    -0.03616   1.01273   1.00
H2       0.19908    -0.00071   1.01161   1.00
H2       0.19420    -0.04874   0.98673   1.00
H2       0.54199    0.14680    1.10422   1.00
H2       0.51941    0.14271    1.15344   1.00
H2       0.52364    0.09879    1.12177   1.00
H2       0.33276    0.37611    0.73297   1.00
H2       0.36233    0.38164    0.68775   1.00
H2       0.33267    0.33681    0.69549   1.00
H2       0.59807    0.27193    0.83717   1.00
H2       0.63879    0.23902    0.82275   1.00
H2       0.58947    0.23234    0.80101   1.00
C5       0.43159    0.28931    0.53282   1.00
H2       0.40372    0.29561    0.51755   1.00
H2       0.42491    0.26578    0.55410   1.00
C5       0.46218    0.27528    0.50306   1.00
C5       0.45659    0.23168    0.49377   1.00
H2       0.49210    0.27985    0.51485   1.00
O3       0.48576    0.41214    0.68500   1.00
C4       0.41465    0.41523    0.64400   1.00
C3c      0.41256    0.38037    0.62257   1.00
H1       0.41079    0.35278    0.63775   1.00
C3d      0.41637    0.45091    0.62365   1.00
C3       0.41327    0.38042    0.58146   1.00
O2       0.40633    0.34570    0.56252   1.00
C3       0.41784    0.45102    0.58273   1.00
H1       0.42056    0.47900    0.56843   1.00
C2       0.41618    0.41601    0.56061   1.00
C5       0.50500    0.44855    0.68621   1.00
H2       0.51189    0.45781    0.71662   1.00
H2       0.48692    0.47182    0.67234   1.00
C5       0.54315    0.44440    0.66371   1.00
H2       0.53633    0.43409    0.63363   1.00
H2       0.56110    0.42136    0.67802   1.00
C5       0.56544    0.48338    0.66238   1.00
H2       0.57210    0.49399    0.69232   1.00
H2       0.54809    0.50604    0.64689   1.00
C5       0.60435    0.47811    0.64055   1.00
C5       0.38468    0.50099    0.65395   1.00
C5       0.44209    0.32683    0.55430   1.00
H2       0.36905    0.48094    0.67412   1.00
H2       0.36591    0.50629    0.62788   1.00
H2       0.45777    0.31997    0.58200   1.00
H2       0.46200    0.34517    0.53605   1.00
H2       0.45924    0.29115    0.47470   1.00
H2       0.34879    0.53446    0.72253   1.00
H2       0.32935    0.55437    0.67737   1.00
C2       0.41705    0.41672    0.76895   1.00
C3       0.38099    0.41620    0.74903   1.00
O2       0.34698    0.42588    0.76826   1.00
C3       0.45181    0.41479    0.74674   1.00
H1       0.47985    0.41412    0.76115   1.00
C3a      0.38045    0.41481    0.70787   1.00
H1       0.35269    0.41668    0.69298   1.00
C3b      0.45119    0.41468    0.70578   1.00
C4       0.41535    0.41477    0.68600   1.00
O3       0.42145    0.48581    0.64333   1.00
C5       0.32584    0.39186    0.77780   1.00
H2       0.31810    0.37487    0.75109   1.00
C5       0.28858    0.40498    0.79826   1.00
H2       0.34297    0.37271    0.79774   1.00
H2       0.26730    0.41464    0.77568   1.00
H2       0.29591    0.43126    0.81593   1.00
C5       0.27062    0.37299    0.82418   1.00
H2       0.26637    0.34597    0.80676   1.00
C5       0.23087    0.38611    0.84047   1.00
H2       0.28959    0.36649    0.84993   1.00
C5       0.39167    0.53964    0.67483   1.00
H2       0.40104    0.56168    0.65285   1.00
H2       0.41648    0.53572    0.69548   1.00
C5       0.35520    0.55365    0.69700   1.00
C5       0.36187    0.59519    0.71275   1.00
H2       0.43159    0.22807    0.47214   1.00
C5       0.49437    0.21522    0.47588   1.00
H2       0.44949    0.21520    0.52177   1.00
C5       0.62210    0.51840    0.63163   1.00
H2       0.62540    0.46066    0.65949   1.00
H2       0.59896    0.46182    0.61207   1.00
C5       0.21044    0.35120    0.86003   1.00
H2       0.23549    0.41023    0.86289   1.00
H2       0.21193    0.39753    0.81563   1.00
H2       0.39087    0.59637    0.72898   1.00
H2       0.36247    0.61670    0.68739   1.00
C5       0.32854    0.60609    0.74083   1.00
H2       0.51273    0.24020    0.46384   1.00
H2       0.51161    0.19908    0.49929   1.00
H2       0.48673    0.19420    0.45126   1.00
H2       0.60422    0.54199    0.64680   1.00
H2       0.65344    0.51941    0.64271   1.00
H2       0.62177    0.52364    0.59879   1.00
H2       0.23297    0.33276    0.87611   1.00
H2       0.18775    0.36233    0.88164   1.00
H2       0.19549    0.33267    0.83681   1.00
H2       0.33717    0.59807    0.77193   1.00
H2       0.32275    0.63879    0.73902   1.00
H2       0.30101    0.58947    0.73234   1.00
C5       0.43159    1.04069    0.79718   1.00
H2       0.40372    1.03439    0.81245   1.00
H2       0.42491    1.06422    0.77590   1.00
C5       0.46218    1.05472    0.82694   1.00
C5       0.45659    1.09832    0.83623   1.00
H2       0.49210    1.05015    0.81515   1.00
O3       0.48576    0.91786    0.64500   1.00
C4       0.41465    0.91477    0.68600   1.00
C3c      0.41256    0.94963    0.70743   1.00
H1       0.41079    0.97722    0.69225   1.00
C3d      0.41637    0.87909    0.70635   1.00
C3       0.41327    0.94958    0.74854   1.00
O2       0.40633    0.98430    0.76748   1.00
C3       0.41784    0.87898    0.74727   1.00
H1       0.42056    0.85100    0.76157   1.00
C2       0.41618    0.91399    0.76939   1.00
C5       0.50500    0.88145    0.64379   1.00
H2       0.51189    0.87219    0.61338   1.00
H2       0.48692    0.85818    0.65766   1.00
C5       0.54315    0.88560    0.66629   1.00
H2       0.53633    0.89591    0.69637   1.00
H2       0.56110    0.90864    0.65198   1.00
C5       0.56544    0.84662    0.66762   1.00
H2       0.57210    0.83601    0.63768   1.00
H2       0.54809    0.82396    0.68311   1.00
C5       0.60435    0.85189    0.68945   1.00
C5       0.38468    0.82901    0.67605   1.00
C5       0.44209    1.00317    0.77570   1.00
H2       0.36905    0.84906    0.65588   1.00
H2       0.36591    0.82371    0.70212   1.00
H2       0.45777    1.01003    0.74800   1.00
H2       0.46200    0.98483    0.79395   1.00
H2       0.45924    1.03885    0.85530   1.00
H2       0.34879    0.79554    0.60747   1.00
H2       0.32935    0.77563    0.65263   1.00
C2       0.41705    0.91328    0.56105   1.00
C3       0.38099    0.91380    0.58097   1.00
O2       0.34698    0.90412    0.56174   1.00
C3       0.45181    0.91521    0.58326   1.00
H1       0.47985    0.91588    0.56885   1.00
C3a      0.38045    0.91519    0.62213   1.00
H1       0.35269    0.91332    0.63702   1.00
C3b      0.45119    0.91532    0.62422   1.00
C4       0.41535    0.91523    0.64400   1.00
O3       0.42145    0.84419    0.68667   1.00
C5       0.32584    0.93814    0.55220   1.00
H2       0.31810    0.95513    0.57891   1.00
C5       0.28858    0.92502    0.53174   1.00
H2       0.34297    0.95729    0.53226   1.00
H2       0.26730    0.91536    0.55432   1.00
H2       0.29591    0.89874    0.51407   1.00
C5       0.27062    0.95701    0.50582   1.00
H2       0.26637    0.98403    0.52324   1.00
C5       0.23087    0.94389    0.48953   1.00
H2       0.28959    0.96351    0.48007   1.00
C5       0.39167    0.79036    0.65517   1.00
H2       0.40104    0.76832    0.67715   1.00
H2       0.41648    0.79428    0.63452   1.00
C5       0.35520    0.77635    0.63300   1.00
C5       0.36187    0.73481    0.61725   1.00
H2       0.43159    1.10193    0.85786   1.00
C5       0.49437    1.11478    0.85412   1.00
H2       0.44949    1.11480    0.80823   1.00
C5       0.62210    0.81160    0.69837   1.00
H2       0.62540    0.86934    0.67051   1.00
H2       0.59896    0.86818    0.71793   1.00
C5       0.21044    0.97880    0.46997   1.00
H2       0.23549    0.91977    0.46711   1.00
H2       0.21193    0.93247    0.51437   1.00
H2       0.39087    0.73363    0.60102   1.00
H2       0.36247    0.71330    0.64261   1.00
C5       0.32854    0.72391    0.58917   1.00
H2       0.51273    1.08980    0.86616   1.00
H2       0.51161    1.13092    0.83071   1.00
H2       0.48673    1.13580    0.87874   1.00
H2       0.60422    0.78801    0.68320   1.00
H2       0.65344    0.81059    0.68729   1.00
H2       0.62177    0.80636    0.73121   1.00
H2       0.23297    0.99724    0.45389   1.00
H2       0.18775    0.96767    0.44836   1.00
H2       0.19549    0.99733    0.49319   1.00
H2       0.33717    0.73193    0.55807   1.00
H2       0.32275    0.69121    0.59098   1.00
H2       0.30101    0.74053    0.59766   1.00
C5       0.54069    1.29718    0.43159   1.00
H2       0.53439    1.31245    0.40372   1.00
H2       0.56422    1.27590    0.42491   1.00
C5       0.55472    1.32694    0.46218   1.00
C5       0.59832    1.33623    0.45659   1.00
H2       0.55015    1.31515    0.49210   1.00
O3       0.41786    1.14500    0.48576   1.00
C4       0.41477    1.18600    0.41465   1.00
C3c      0.44963    1.20743    0.41256   1.00
H1       0.47722    1.19225    0.41079   1.00
C3d      0.37909    1.20635    0.41637   1.00
C3       0.44958    1.24854    0.41327   1.00
O2       0.48430    1.26748    0.40633   1.00
C3       0.37898    1.24727    0.41784   1.00
H1       0.35100    1.26157    0.42056   1.00
C2       0.41399    1.26939    0.41618   1.00
C5       0.38145    1.14379    0.50500   1.00
H2       0.37219    1.11338    0.51189   1.00
H2       0.35818    1.15766    0.48692   1.00
C5       0.38560    1.16629    0.54315   1.00
H2       0.39591    1.19637    0.53633   1.00
H2       0.40864    1.15198    0.56110   1.00
C5       0.34662    1.16762    0.56544   1.00
H2       0.33601    1.13768    0.57210   1.00
H2       0.32396    1.18311    0.54809   1.00
C5       0.35189    1.18945    0.60435   1.00
C5       0.32901    1.17605    0.38468   1.00
C5       0.50317    1.27570    0.44209   1.00
H2       0.34906    1.15588    0.36905   1.00
H2       0.32371    1.20212    0.36591   1.00
H2       0.51003    1.24800    0.45777   1.00
H2       0.48483    1.29395    0.46200   1.00
H2       0.53885    1.35530    0.45924   1.00
H2       0.29554    1.10747    0.34879   1.00
H2       0.27563    1.15263    0.32935   1.00
C2       0.41328    1.06105    0.41705   1.00
C3       0.41380    1.08097    0.38099   1.00
O2       0.40412    1.06174    0.34698   1.00
C3       0.41521    1.08326    0.45181   1.00
H1       0.41588    1.06885    0.47985   1.00
C3a      0.41519    1.12213    0.38045   1.00
H1       0.41332    1.13702    0.35269   1.00
C3b      0.41532    1.12422    0.45119   1.00
C4       0.41523    1.14400    0.41535   1.00
O3       0.34419    1.18667    0.42145   1.00
C5       0.43814    1.05220    0.32584   1.00
H2       0.45513    1.07891    0.31810   1.00
C5       0.42502    1.03174    0.28858   1.00
H2       0.45729    1.03226    0.34297   1.00
H2       0.41536    1.05432    0.26730   1.00
H2       0.39874    1.01407    0.29591   1.00
C5       0.45701    1.00582    0.27062   1.00
H2       0.48403    1.02324    0.26637   1.00
C5       0.44389    0.98953    0.23087   1.00
H2       0.46351    0.98007    0.28959   1.00
C5       0.29036    1.15517    0.39167   1.00
H2       0.26832    1.17715    0.40104   1.00
H2       0.29428    1.13452    0.41648   1.00
C5       0.27635    1.13300    0.35520   1.00
C5       0.23481    1.11725    0.36187   1.00
H2       0.60193    1.35786    0.43159   1.00
C5       0.61478    1.35412    0.49437   1.00
H2       0.61480    1.30823    0.44949   1.00
C5       0.31160    1.19837    0.62210   1.00
H2       0.36934    1.17051    0.62540   1.00
H2       0.36818    1.21793    0.59896   1.00
C5       0.47880    0.96997    0.21044   1.00
H2       0.41977    0.96711    0.23549   1.00
H2       0.43247    1.01437    0.21193   1.00
H2       0.23363    1.10102    0.39087   1.00
H2       0.21330    1.14261    0.36247   1.00
C5       0.22391    1.08917    0.32854   1.00
H2       0.58980    1.36616    0.51273   1.00
H2       0.63092    1.33071    0.51161   1.00
H2       0.63580    1.37874    0.48673   1.00
H2       0.28801    1.18320    0.60422   1.00
H2       0.31059    1.18729    0.65344   1.00
H2       0.30636    1.23121    0.62177   1.00
H2       0.49724    0.95389    0.23297   1.00
H2       0.46767    0.94836    0.18775   1.00
H2       0.49733    0.99319    0.19549   1.00
H2       0.23193    1.05807    0.33717   1.00
H2       0.19121    1.09098    0.32275   1.00
H2       0.24053    1.09766    0.30101   1.00
C5       0.03282    0.93159    0.28931   1.00
H2       0.01755    0.90372    0.29561   1.00
H2       0.05410    0.92491    0.26578   1.00
C5       0.00306    0.96218    0.27528   1.00
C5       -0.00623   0.95659    0.23168   1.00
H2       0.01485    0.99210    0.27985   1.00
O3       0.18500    0.98576    0.41214   1.00
C4       0.14400    0.91465    0.41523   1.00
C3c      0.12257    0.91256    0.38037   1.00
H1       0.13775    0.91079    0.35278   1.00
C3d      0.12365    0.91637    0.45091   1.00
C3       0.08146    0.91327    0.38042   1.00
O2       0.06252    0.90633    0.34570   1.00
C3       0.08273    0.91784    0.45102   1.00
H1       0.06843    0.92056    0.47900   1.00
C2       0.06061    0.91618    0.41601   1.00
C5       0.18621    1.00500    0.44855   1.00
H2       0.21662    1.01189    0.45781   1.00
H2       0.17234    0.98692    0.47182   1.00
C5       0.16371    1.04315    0.44440   1.00
H2       0.13363    1.03633    0.43409   1.00
H2       0.17802    1.06110    0.42136   1.00
C5       0.16238    1.06544    0.48338   1.00
H2       0.19232    1.07210    0.49399   1.00
H2       0.14689    1.04809    0.50604   1.00
C5       0.14055    1.10435    0.47811   1.00
C5       0.15395    0.88468    0.50099   1.00
C5       0.05430    0.94209    0.32683   1.00
H2       0.17412    0.86905    0.48094   1.00
H2       0.12788    0.86591    0.50629   1.00
H2       0.08200    0.95777    0.31997   1.00
H2       0.03605    0.96200    0.34517   1.00
H2       -0.02530   0.95924    0.29115   1.00
H2       0.22253    0.84879    0.53446   1.00
H2       0.17737    0.82935    0.55437   1.00
C2       0.26895    0.91705    0.41672   1.00
C3       0.24903    0.88099    0.41620   1.00
O2       0.26826    0.84698    0.42588   1.00
C3       0.24674    0.95181    0.41479   1.00
H1       0.26115    0.97985    0.41412   1.00
C3a      0.20787    0.88045    0.41481   1.00
H1       0.19298    0.85269    0.41668   1.00
C3b      0.20578    0.95119    0.41468   1.00
C4       0.18600    0.91535    0.41477   1.00
O3       0.14333    0.92145    0.48581   1.00
C5       0.27780    0.82584    0.39186   1.00
H2       0.25109    0.81810    0.37487   1.00
C5       0.29826    0.78858    0.40498   1.00
H2       0.29774    0.84297    0.37271   1.00
H2       0.27568    0.76730    0.41464   1.00
H2       0.31593    0.79591    0.43126   1.00
C5       0.32418    0.77062    0.37299   1.00
H2       0.30676    0.76637    0.34597   1.00
C5       0.34047    0.73087    0.38611   1.00
H2       0.34993    0.78959    0.36649   1.00
C5       0.17483    0.89167    0.53964   1.00
H2       0.15285    0.90104    0.56168   1.00
H2       0.19548    0.91648    0.53572   1.00
C5       0.19700    0.85520    0.55365   1.00
C5       0.21275    0.86187    0.59519   1.00
H2       -0.02786   0.93159    0.22807   1.00
C5       -0.02412   0.99437    0.21522   1.00
H2       0.02177    0.94949    0.21520   1.00
C5       0.13163    1.12210    0.51840   1.00
H2       0.15949    1.12540    0.46066   1.00
H2       0.11207    1.09896    0.46182   1.00
C5       0.36003    0.71044    0.35120   1.00
H2       0.36289    0.73549    0.41023   1.00
H2       0.31563    0.71193    0.39753   1.00
H2       0.22898    0.89087    0.59637   1.00
H2       0.18739    0.86247    0.61670   1.00
C5       0.24083    0.82854    0.60609   1.00
H2       -0.03616   1.01273    0.24020   1.00
H2       -0.00071   1.01161    0.19908   1.00
H2       -0.04874   0.98673    0.19420   1.00
H2       0.14680    1.10422    0.54199   1.00
H2       0.14271    1.15344    0.51941   1.00
H2       0.09879    1.12177    0.52364   1.00
H2       0.37611    0.73297    0.33276   1.00
H2       0.38164    0.68775    0.36233   1.00
H2       0.33681    0.69549    0.33267   1.00
H2       0.27193    0.83717    0.59807   1.00
H2       0.23902    0.82275    0.63879   1.00
H2       0.23234    0.80101    0.58947   1.00
C5       0.79718    0.93159    0.54069   1.00
H2       0.81245    0.90372    0.53439   1.00
H2       0.77590    0.92491    0.56422   1.00
C5       0.82694    0.96218    0.55472   1.00
C5       0.83623    0.95659    0.59832   1.00
H2       0.81515    0.99210    0.55015   1.00
O3       0.64500    0.98576    0.41786   1.00
C4       0.68600    0.91465    0.41477   1.00
C3c      0.70743    0.91256    0.44963   1.00
H1       0.69225    0.91079    0.47722   1.00
C3d      0.70635    0.91637    0.37909   1.00
C3       0.74854    0.91327    0.44958   1.00
O2       0.76748    0.90633    0.48430   1.00
C3       0.74727    0.91784    0.37898   1.00
H1       0.76157    0.92056    0.35100   1.00
C2       0.76939    0.91618    0.41399   1.00
C5       0.64379    1.00500    0.38145   1.00
H2       0.61338    1.01189    0.37219   1.00
H2       0.65766    0.98692    0.35818   1.00
C5       0.66629    1.04315    0.38560   1.00
H2       0.69637    1.03633    0.39591   1.00
H2       0.65198    1.06110    0.40864   1.00
C5       0.66762    1.06544    0.34662   1.00
H2       0.63768    1.07210    0.33601   1.00
H2       0.68311    1.04809    0.32396   1.00
C5       0.68945    1.10435    0.35189   1.00
C5       0.67605    0.88468    0.32901   1.00
C5       0.77570    0.94209    0.50317   1.00
H2       0.65588    0.86905    0.34906   1.00
H2       0.70212    0.86591    0.32371   1.00
H2       0.74800    0.95777    0.51003   1.00
H2       0.79395    0.96200    0.48483   1.00
H2       0.85530    0.95924    0.53885   1.00
H2       0.60747    0.84879    0.29554   1.00
H2       0.65263    0.82935    0.27563   1.00
C2       0.56105    0.91705    0.41328   1.00
C3       0.58097    0.88099    0.41380   1.00
O2       0.56174    0.84698    0.40412   1.00
C3       0.58326    0.95181    0.41521   1.00
H1       0.56885    0.97985    0.41588   1.00
C3a      0.62213    0.88045    0.41519   1.00
H1       0.63702    0.85269    0.41332   1.00
C3b      0.62422    0.95119    0.41532   1.00
C4       0.64400    0.91535    0.41523   1.00
O3       0.68667    0.92145    0.34419   1.00
C5       0.55220    0.82584    0.43814   1.00
H2       0.57891    0.81810    0.45513   1.00
C5       0.53174    0.78858    0.42502   1.00
H2       0.53226    0.84297    0.45729   1.00
H2       0.55432    0.76730    0.41536   1.00
H2       0.51407    0.79591    0.39874   1.00
C5       0.50582    0.77062    0.45701   1.00
H2       0.52324    0.76637    0.48403   1.00
C5       0.48953    0.73087    0.44389   1.00
H2       0.48007    0.78959    0.46351   1.00
C5       0.65517    0.89167    0.29036   1.00
H2       0.67715    0.90104    0.26832   1.00
H2       0.63452    0.91648    0.29428   1.00
C5       0.63300    0.85520    0.27635   1.00
C5       0.61725    0.86187    0.23481   1.00
H2       0.85786    0.93159    0.60193   1.00
C5       0.85412    0.99437    0.61478   1.00
H2       0.80823    0.94949    0.61480   1.00
C5       0.69837    1.12210    0.31160   1.00
H2       0.67051    1.12540    0.36934   1.00
H2       0.71793    1.09896    0.36818   1.00
C5       0.46997    0.71044    0.47880   1.00
H2       0.46711    0.73549    0.41977   1.00
H2       0.51437    0.71193    0.43247   1.00
H2       0.60102    0.89087    0.23363   1.00
H2       0.64261    0.86247    0.21330   1.00
C5       0.58917    0.82854    0.22391   1.00
H2       0.86616    1.01273    0.58980   1.00
H2       0.83071    1.01161    0.63092   1.00
H2       0.87874    0.98673    0.63580   1.00
H2       0.68320    1.10422    0.28801   1.00
H2       0.68729    1.15344    0.31059   1.00
H2       0.73121    1.12177    0.30636   1.00
H2       0.45389    0.73297    0.49724   1.00
H2       0.44836    0.68775    0.46767   1.00
H2       0.49319    0.69549    0.49733   1.00
H2       0.55807    0.83717    0.23193   1.00
H2       0.59098    0.82275    0.19121   1.00
H2       0.59766    0.80101    0.24053   1.00
C5       0.28931    0.53282    0.43159   1.00
H2       0.29561    0.51755    0.40372   1.00
H2       0.26578    0.55410    0.42491   1.00
C5       0.27528    0.50306    0.46218   1.00
C5       0.23168    0.49377    0.45659   1.00
H2       0.27985    0.51485    0.49210   1.00
O3       0.41214    0.68500    0.48576   1.00
C4       0.41523    0.64400    0.41465   1.00
C3c      0.38037    0.62257    0.41256   1.00
H1       0.35278    0.63775    0.41079   1.00
C3d      0.45091    0.62365    0.41637   1.00
C3       0.38042    0.58146    0.41327   1.00
O2       0.34570    0.56252    0.40633   1.00
C3       0.45102    0.58273    0.41784   1.00
H1       0.47900    0.56843    0.42056   1.00
C2       0.41601    0.56061    0.41618   1.00
C5       0.44855    0.68621    0.50500   1.00
H2       0.45781    0.71662    0.51189   1.00
H2       0.47182    0.67234    0.48692   1.00
C5       0.44440    0.66371    0.54315   1.00
H2       0.43409    0.63363    0.53633   1.00
H2       0.42136    0.67802    0.56110   1.00
C5       0.48338    0.66238    0.56544   1.00
H2       0.49399    0.69232    0.57210   1.00
H2       0.50604    0.64689    0.54809   1.00
C5       0.47811    0.64055    0.60435   1.00
C5       0.50099    0.65395    0.38468   1.00
C5       0.32683    0.55430    0.44209   1.00
H2       0.48094    0.67412    0.36905   1.00
H2       0.50629    0.62788    0.36591   1.00
H2       0.31997    0.58200    0.45777   1.00
H2       0.34517    0.53605    0.46200   1.00
H2       0.29115    0.47470    0.45924   1.00
H2       0.53446    0.72253    0.34879   1.00
H2       0.55437    0.67737    0.32935   1.00
C2       0.41672    0.76895    0.41705   1.00
C3       0.41620    0.74903    0.38099   1.00
O2       0.42588    0.76826    0.34698   1.00
C3       0.41479    0.74674    0.45181   1.00
H1       0.41412    0.76115    0.47985   1.00
C3a      0.41481    0.70787    0.38045   1.00
H1       0.41668    0.69298    0.35269   1.00
C3b      0.41468    0.70578    0.45119   1.00
C4       0.41477    0.68600    0.41535   1.00
O3       0.48581    0.64333    0.42145   1.00
C5       0.39186    0.77780    0.32584   1.00
H2       0.37487    0.75109    0.31810   1.00
C5       0.40498    0.79826    0.28858   1.00
H2       0.37271    0.79774    0.34297   1.00
H2       0.41464    0.77568    0.26730   1.00
H2       0.43126    0.81593    0.29591   1.00
C5       0.37299    0.82418    0.27062   1.00
H2       0.34597    0.80676    0.26637   1.00
C5       0.38611    0.84047    0.23087   1.00
H2       0.36649    0.84993    0.28959   1.00
C5       0.53964    0.67483    0.39167   1.00
H2       0.56168    0.65285    0.40104   1.00
H2       0.53572    0.69548    0.41648   1.00
C5       0.55365    0.69700    0.35520   1.00
C5       0.59519    0.71275    0.36187   1.00
H2       0.22807    0.47214    0.43159   1.00
C5       0.21522    0.47588    0.49437   1.00
H2       0.21520    0.52177    0.44949   1.00
C5       0.51840    0.63163    0.62210   1.00
H2       0.46066    0.65949    0.62540   1.00
H2       0.46182    0.61207    0.59896   1.00
C5       0.35120    0.86003    0.21044   1.00
H2       0.41023    0.86289    0.23549   1.00
H2       0.39753    0.81563    0.21193   1.00
H2       0.59637    0.72898    0.39087   1.00
H2       0.61670    0.68739    0.36247   1.00
C5       0.60609    0.74083    0.32854   1.00
H2       0.24020    0.46384    0.51273   1.00
H2       0.19908    0.49929    0.51161   1.00
H2       0.19420    0.45126    0.48673   1.00
H2       0.54199    0.64680    0.60422   1.00
H2       0.51941    0.64271    0.65344   1.00
H2       0.52364    0.59879    0.62177   1.00
H2       0.33276    0.87611    0.23297   1.00
H2       0.36233    0.88164    0.18775   1.00
H2       0.33267    0.83681    0.19549   1.00
H2       0.59807    0.77193    0.33717   1.00
H2       0.63879    0.73902    0.32275   1.00
H2       0.58947    0.73234    0.30101   1.00
C5       0.43159    0.78931    0.03282   1.00
H2       0.40372    0.79561    0.01755   1.00
H2       0.42491    0.76578    0.05410   1.00
C5       0.46218    0.77528    0.00306   1.00
C5       0.45659    0.73168    -0.00623   1.00
H2       0.49210    0.77985    0.01485   1.00
O3       0.48576    0.91214    0.18500   1.00
C4       0.41465    0.91523    0.14400   1.00
C3c      0.41256    0.88037    0.12257   1.00
H1       0.41079    0.85278    0.13775   1.00
C3d      0.41637    0.95091    0.12365   1.00
C3       0.41327    0.88042    0.08146   1.00
O2       0.40633    0.84570    0.06252   1.00
C3       0.41784    0.95102    0.08273   1.00
H1       0.42056    0.97900    0.06843   1.00
C2       0.41618    0.91601    0.06061   1.00
C5       0.50500    0.94855    0.18621   1.00
H2       0.51189    0.95781    0.21662   1.00
H2       0.48692    0.97182    0.17234   1.00
C5       0.54315    0.94440    0.16371   1.00
H2       0.53633    0.93409    0.13363   1.00
H2       0.56110    0.92136    0.17802   1.00
C5       0.56544    0.98338    0.16238   1.00
H2       0.57210    0.99399    0.19232   1.00
H2       0.54809    1.00604    0.14689   1.00
C5       0.60435    0.97811    0.14055   1.00
C5       0.38468    1.00099    0.15395   1.00
C5       0.44209    0.82683    0.05430   1.00
H2       0.36905    0.98094    0.17412   1.00
H2       0.36591    1.00629    0.12788   1.00
H2       0.45777    0.81997    0.08200   1.00
H2       0.46200    0.84517    0.03605   1.00
H2       0.45924    0.79115    -0.02530   1.00
H2       0.34879    1.03446    0.22253   1.00
H2       0.32935    1.05437    0.17737   1.00
C2       0.41705    0.91672    0.26895   1.00
C3       0.38099    0.91620    0.24903   1.00
O2       0.34698    0.92588    0.26826   1.00
C3       0.45181    0.91479    0.24674   1.00
H1       0.47985    0.91412    0.26115   1.00
C3a      0.38045    0.91481    0.20787   1.00
H1       0.35269    0.91668    0.19298   1.00
C3b      0.45119    0.91468    0.20578   1.00
C4       0.41535    0.91477    0.18600   1.00
O3       0.42145    0.98581    0.14333   1.00
C5       0.32584    0.89186    0.27780   1.00
H2       0.31810    0.87487    0.25109   1.00
C5       0.28858    0.90498    0.29826   1.00
H2       0.34297    0.87271    0.29774   1.00
H2       0.26730    0.91464    0.27568   1.00
H2       0.29591    0.93126    0.31593   1.00
C5       0.27062    0.87299    0.32418   1.00
H2       0.26637    0.84597    0.30676   1.00
C5       0.23087    0.88611    0.34047   1.00
H2       0.28959    0.86649    0.34993   1.00
C5       0.39167    1.03964    0.17483   1.00
H2       0.40104    1.06168    0.15285   1.00
H2       0.41648    1.03572    0.19548   1.00
C5       0.35520    1.05365    0.19700   1.00
C5       0.36187    1.09519    0.21275   1.00
H2       0.43159    0.72807    -0.02786   1.00
C5       0.49437    0.71522    -0.02412   1.00
H2       0.44949    0.71520    0.02177   1.00
C5       0.62210    1.01840    0.13163   1.00
H2       0.62540    0.96066    0.15949   1.00
H2       0.59896    0.96182    0.11207   1.00
C5       0.21044    0.85120    0.36003   1.00
H2       0.23549    0.91023    0.36289   1.00
H2       0.21193    0.89753    0.31563   1.00
H2       0.39087    1.09637    0.22898   1.00
H2       0.36247    1.11670    0.18739   1.00
C5       0.32854    1.10609    0.24083   1.00
H2       0.51273    0.74020    -0.03616   1.00
H2       0.51161    0.69908    -0.00071   1.00
H2       0.48673    0.69420    -0.04874   1.00
H2       0.60422    1.04199    0.14680   1.00
H2       0.65344    1.01941    0.14271   1.00
H2       0.62177    1.02364    0.09879   1.00
H2       0.23297    0.83276    0.37611   1.00
H2       0.18775    0.86233    0.38164   1.00
H2       0.19549    0.83267    0.33681   1.00
H2       0.33717    1.09807    0.27193   1.00
H2       0.32275    1.13879    0.23902   1.00
H2       0.30101    1.08947    0.23234   1.00
C5       0.93159    0.54069    0.79718   1.00
H2       0.90372    0.53439    0.81245   1.00
H2       0.92491    0.56422    0.77590   1.00
C5       0.96218    0.55472    0.82694   1.00
C5       0.95659    0.59832    0.83623   1.00
H2       0.99210    0.55015    0.81515   1.00
O3       0.98576    0.41786    0.64500   1.00
C4       0.91465    0.41477    0.68600   1.00
C3c      0.91256    0.44963    0.70743   1.00
H1       0.91079    0.47722    0.69225   1.00
C3d      0.91637    0.37909    0.70635   1.00
C3       0.91327    0.44958    0.74854   1.00
O2       0.90633    0.48430    0.76748   1.00
C3       0.91784    0.37898    0.74727   1.00
H1       0.92056    0.35100    0.76157   1.00
C2       0.91618    0.41399    0.76939   1.00
C5       1.00500    0.38145    0.64379   1.00
H2       1.01189    0.37219    0.61338   1.00
H2       0.98692    0.35818    0.65766   1.00
C5       1.04315    0.38560    0.66629   1.00
H2       1.03633    0.39591    0.69637   1.00
H2       1.06110    0.40864    0.65198   1.00
C5       1.06544    0.34662    0.66762   1.00
H2       1.07210    0.33601    0.63768   1.00
H2       1.04809    0.32396    0.68311   1.00
C5       1.10435    0.35189    0.68945   1.00
C5       0.88468    0.32901    0.67605   1.00
C5       0.94209    0.50317    0.77570   1.00
H2       0.86905    0.34906    0.65588   1.00
H2       0.86591    0.32371    0.70212   1.00
H2       0.95777    0.51003    0.74800   1.00
H2       0.96200    0.48483    0.79395   1.00
H2       0.95924    0.53885    0.85530   1.00
H2       0.84879    0.29554    0.60747   1.00
H2       0.82935    0.27563    0.65263   1.00
C2       0.91705    0.41328    0.56105   1.00
C3       0.88099    0.41380    0.58097   1.00
O2       0.84698    0.40412    0.56174   1.00
C3       0.95181    0.41521    0.58326   1.00
H1       0.97985    0.41588    0.56885   1.00
C3a      0.88045    0.41519    0.62213   1.00
H1       0.85269    0.41332    0.63702   1.00
C3b      0.95119    0.41532    0.62422   1.00
C4       0.91535    0.41523    0.64400   1.00
O3       0.92145    0.34419    0.68667   1.00
C5       0.82584    0.43814    0.55220   1.00
H2       0.81810    0.45513    0.57891   1.00
C5       0.78858    0.42502    0.53174   1.00
H2       0.84297    0.45729    0.53226   1.00
H2       0.76730    0.41536    0.55432   1.00
H2       0.79591    0.39874    0.51407   1.00
C5       0.77062    0.45701    0.50582   1.00
H2       0.76637    0.48403    0.52324   1.00
C5       0.73087    0.44389    0.48953   1.00
H2       0.78959    0.46351    0.48007   1.00
C5       0.89167    0.29036    0.65517   1.00
H2       0.90104    0.26832    0.67715   1.00
H2       0.91648    0.29428    0.63452   1.00
C5       0.85520    0.27635    0.63300   1.00
C5       0.86187    0.23481    0.61725   1.00
H2       0.93159    0.60193    0.85786   1.00
C5       0.99437    0.61478    0.85412   1.00
H2       0.94949    0.61480    0.80823   1.00
C5       1.12210    0.31160    0.69837   1.00
H2       1.12540    0.36934    0.67051   1.00
H2       1.09896    0.36818    0.71793   1.00
C5       0.71044    0.47880    0.46997   1.00
H2       0.73549    0.41977    0.46711   1.00
H2       0.71193    0.43247    0.51437   1.00
H2       0.89087    0.23363    0.60102   1.00
H2       0.86247    0.21330    0.64261   1.00
C5       0.82854    0.22391    0.58917   1.00
H2       1.01273    0.58980    0.86616   1.00
H2       1.01161    0.63092    0.83071   1.00
H2       0.98673    0.63580    0.87874   1.00
H2       1.10422    0.28801    0.68320   1.00
H2       1.15344    0.31059    0.68729   1.00
H2       1.12177    0.30636    0.73121   1.00
H2       0.73297    0.49724    0.45389   1.00
H2       0.68775    0.46767    0.44836   1.00
H2       0.69549    0.49733    0.49319   1.00
H2       0.83717    0.23193    0.55807   1.00
H2       0.82275    0.19121    0.59098   1.00
H2       0.80101    0.24053    0.59766   1.00
C5       1.04069    0.79718    0.43159   1.00
H2       1.03439    0.81245    0.40372   1.00
H2       1.06422    0.77590    0.42491   1.00
C5       1.05472    0.82694    0.46218   1.00
C5       1.09832    0.83623    0.45659   1.00
H2       1.05015    0.81515    0.49210   1.00
O3       0.91786    0.64500    0.48576   1.00
C4       0.91477    0.68600    0.41465   1.00
C3c      0.94963    0.70743    0.41256   1.00
H1       0.97722    0.69225    0.41079   1.00
C3d      0.87909    0.70635    0.41637   1.00
C3       0.94958    0.74854    0.41327   1.00
O2       0.98430    0.76748    0.40633   1.00
C3       0.87898    0.74727    0.41784   1.00
H1       0.85100    0.76157    0.42056   1.00
C2       0.91399    0.76939    0.41618   1.00
C5       0.88145    0.64379    0.50500   1.00
H2       0.87219    0.61338    0.51189   1.00
H2       0.85818    0.65766    0.48692   1.00
C5       0.88560    0.66629    0.54315   1.00
H2       0.89591    0.69637    0.53633   1.00
H2       0.90864    0.65198    0.56110   1.00
C5       0.84662    0.66762    0.56544   1.00
H2       0.83601    0.63768    0.57210   1.00
H2       0.82396    0.68311    0.54809   1.00
C5       0.85189    0.68945    0.60435   1.00
C5       0.82901    0.67605    0.38468   1.00
C5       1.00317    0.77570    0.44209   1.00
H2       0.84906    0.65588    0.36905   1.00
H2       0.82371    0.70212    0.36591   1.00
H2       1.01003    0.74800    0.45777   1.00
H2       0.98483    0.79395    0.46200   1.00
H2       1.03885    0.85530    0.45924   1.00
H2       0.79554    0.60747    0.34879   1.00
H2       0.77563    0.65263    0.32935   1.00
C2       0.91328    0.56105    0.41705   1.00
C3       0.91380    0.58097    0.38099   1.00
O2       0.90412    0.56174    0.34698   1.00
C3       0.91521    0.58326    0.45181   1.00
H1       0.91588    0.56885    0.47985   1.00
C3a      0.91519    0.62213    0.38045   1.00
H1       0.91332    0.63702    0.35269   1.00
C3b      0.91532    0.62422    0.45119   1.00
C4       0.91523    0.64400    0.41535   1.00
O3       0.84419    0.68667    0.42145   1.00
C5       0.93814    0.55220    0.32584   1.00
H2       0.95513    0.57891    0.31810   1.00
C5       0.92502    0.53174    0.28858   1.00
H2       0.95729    0.53226    0.34297   1.00
H2       0.91536    0.55432    0.26730   1.00
H2       0.89874    0.51407    0.29591   1.00
C5       0.95701    0.50582    0.27062   1.00
H2       0.98403    0.52324    0.26637   1.00
C5       0.94389    0.48953    0.23087   1.00
H2       0.96351    0.48007    0.28959   1.00
C5       0.79036    0.65517    0.39167   1.00
H2       0.76832    0.67715    0.40104   1.00
H2       0.79428    0.63452    0.41648   1.00
C5       0.77635    0.63300    0.35520   1.00
C5       0.73481    0.61725    0.36187   1.00
H2       1.10193    0.85786    0.43159   1.00
C5       1.11478    0.85412    0.49437   1.00
H2       1.11480    0.80823    0.44949   1.00
C5       0.81160    0.69837    0.62210   1.00
H2       0.86934    0.67051    0.62540   1.00
H2       0.86818    0.71793    0.59896   1.00
C5       0.97880    0.46997    0.21044   1.00
H2       0.91977    0.46711    0.23549   1.00
H2       0.93247    0.51437    0.21193   1.00
H2       0.73363    0.60102    0.39087   1.00
H2       0.71330    0.64261    0.36247   1.00
C5       0.72391    0.58917    0.32854   1.00
H2       1.08980    0.86616    0.51273   1.00
H2       1.13092    0.83071    0.51161   1.00
H2       1.13580    0.87874    0.48673   1.00
H2       0.78801    0.68320    0.60422   1.00
H2       0.81059    0.68729    0.65344   1.00
H2       0.80636    0.73121    0.62177   1.00
H2       0.99724    0.45389    0.23297   1.00
H2       0.96767    0.44836    0.18775   1.00
H2       0.99733    0.49319    0.19549   1.00
H2       0.73193    0.55807    0.33717   1.00
H2       0.69121    0.59098    0.32275   1.00
H2       0.74053    0.59766    0.30101   1.00
C5       0.53282    0.43159    0.28931   1.00
H2       0.51755    0.40372    0.29561   1.00
H2       0.55410    0.42491    0.26578   1.00
C5       0.50306    0.46218    0.27528   1.00
C5       0.49377    0.45659    0.23168   1.00
H2       0.51485    0.49210    0.27985   1.00
O3       0.68500    0.48576    0.41214   1.00
C4       0.64400    0.41465    0.41523   1.00
C3c      0.62257    0.41256    0.38037   1.00
H1       0.63775    0.41079    0.35278   1.00
C3d      0.62365    0.41637    0.45091   1.00
C3       0.58146    0.41327    0.38042   1.00
O2       0.56252    0.40633    0.34570   1.00
C3       0.58273    0.41784    0.45102   1.00
H1       0.56843    0.42056    0.47900   1.00
C2       0.56061    0.41618    0.41601   1.00
C5       0.68621    0.50500    0.44855   1.00
H2       0.71662    0.51189    0.45781   1.00
H2       0.67234    0.48692    0.47182   1.00
C5       0.66371    0.54315    0.44440   1.00
H2       0.63363    0.53633    0.43409   1.00
H2       0.67802    0.56110    0.42136   1.00
C5       0.66238    0.56544    0.48338   1.00
H2       0.69232    0.57210    0.49399   1.00
H2       0.64689    0.54809    0.50604   1.00
C5       0.64055    0.60435    0.47811   1.00
C5       0.65395    0.38468    0.50099   1.00
C5       0.55430    0.44209    0.32683   1.00
H2       0.67412    0.36905    0.48094   1.00
H2       0.62788    0.36591    0.50629   1.00
H2       0.58200    0.45777    0.31997   1.00
H2       0.53605    0.46200    0.34517   1.00
H2       0.47470    0.45924    0.29115   1.00
H2       0.72253    0.34879    0.53446   1.00
H2       0.67737    0.32935    0.55437   1.00
C2       0.76895    0.41705    0.41672   1.00
C3       0.74903    0.38099    0.41620   1.00
O2       0.76826    0.34698    0.42588   1.00
C3       0.74674    0.45181    0.41479   1.00
H1       0.76115    0.47985    0.41412   1.00
C3a      0.70787    0.38045    0.41481   1.00
H1       0.69298    0.35269    0.41668   1.00
C3b      0.70578    0.45119    0.41468   1.00
C4       0.68600    0.41535    0.41477   1.00
O3       0.64333    0.42145    0.48581   1.00
C5       0.77780    0.32584    0.39186   1.00
H2       0.75109    0.31810    0.37487   1.00
C5       0.79826    0.28858    0.40498   1.00
H2       0.79774    0.34297    0.37271   1.00
H2       0.77568    0.26730    0.41464   1.00
H2       0.81593    0.29591    0.43126   1.00
C5       0.82418    0.27062    0.37299   1.00
H2       0.80676    0.26637    0.34597   1.00
C5       0.84047    0.23087    0.38611   1.00
H2       0.84993    0.28959    0.36649   1.00
C5       0.67483    0.39167    0.53964   1.00
H2       0.65285    0.40104    0.56168   1.00
H2       0.69548    0.41648    0.53572   1.00
C5       0.69700    0.35520    0.55365   1.00
C5       0.71275    0.36187    0.59519   1.00
H2       0.47214    0.43159    0.22807   1.00
C5       0.47588    0.49437    0.21522   1.00
H2       0.52177    0.44949    0.21520   1.00
C5       0.63163    0.62210    0.51840   1.00
H2       0.65949    0.62540    0.46066   1.00
H2       0.61207    0.59896    0.46182   1.00
C5       0.86003    0.21044    0.35120   1.00
H2       0.86289    0.23549    0.41023   1.00
H2       0.81563    0.21193    0.39753   1.00
H2       0.72898    0.39087    0.59637   1.00
H2       0.68739    0.36247    0.61670   1.00
C5       0.74083    0.32854    0.60609   1.00
H2       0.46384    0.51273    0.24020   1.00
H2       0.49929    0.51161    0.19908   1.00
H2       0.45126    0.48673    0.19420   1.00
H2       0.64680    0.60422    0.54199   1.00
H2       0.64271    0.65344    0.51941   1.00
H2       0.59879    0.62177    0.52364   1.00
H2       0.87611    0.23297    0.33276   1.00
H2       0.88164    0.18775    0.36233   1.00
H2       0.83681    0.19549    0.33267   1.00
H2       0.77193    0.33717    0.59807   1.00
H2       0.73902    0.32275    0.63879   1.00
H2       0.73234    0.30101    0.58947   1.00
C5       1.29718    0.43159    0.54069   1.00
H2       1.31245    0.40372    0.53439   1.00
H2       1.27590    0.42491    0.56422   1.00
C5       1.32694    0.46218    0.55472   1.00
C5       1.33623    0.45659    0.59832   1.00
H2       1.31515    0.49210    0.55015   1.00
O3       1.14500    0.48576    0.41786   1.00
C4       1.18600    0.41465    0.41477   1.00
C3c      1.20743    0.41256    0.44963   1.00
H1       1.19225    0.41079    0.47722   1.00
C3d      1.20635    0.41637    0.37909   1.00
C3       1.24854    0.41327    0.44958   1.00
O2       1.26748    0.40633    0.48430   1.00
C3       1.24727    0.41784    0.37898   1.00
H1       1.26157    0.42056    0.35100   1.00
C2       1.26939    0.41618    0.41399   1.00
C5       1.14379    0.50500    0.38145   1.00
H2       1.11338    0.51189    0.37219   1.00
H2       1.15766    0.48692    0.35818   1.00
C5       1.16629    0.54315    0.38560   1.00
H2       1.19637    0.53633    0.39591   1.00
H2       1.15198    0.56110    0.40864   1.00
C5       1.16762    0.56544    0.34662   1.00
H2       1.13768    0.57210    0.33601   1.00
H2       1.18311    0.54809    0.32396   1.00
C5       1.18945    0.60435    0.35189   1.00
C5       1.17605    0.38468    0.32901   1.00
C5       1.27570    0.44209    0.50317   1.00
H2       1.15588    0.36905    0.34906   1.00
H2       1.20212    0.36591    0.32371   1.00
H2       1.24800    0.45777    0.51003   1.00
H2       1.29395    0.46200    0.48483   1.00
H2       1.35530    0.45924    0.53885   1.00
H2       1.10747    0.34879    0.29554   1.00
H2       1.15263    0.32935    0.27563   1.00
C2       1.06105    0.41705    0.41328   1.00
C3       1.08097    0.38099    0.41380   1.00
O2       1.06174    0.34698    0.40412   1.00
C3       1.08326    0.45181    0.41521   1.00
H1       1.06885    0.47985    0.41588   1.00
C3a      1.12213    0.38045    0.41519   1.00
H1       1.13702    0.35269    0.41332   1.00
C3b      1.12422    0.45119    0.41532   1.00
C4       1.14400    0.41535    0.41523   1.00
O3       1.18667    0.42145    0.34419   1.00
C5       1.05220    0.32584    0.43814   1.00
H2       1.07891    0.31810    0.45513   1.00
C5       1.03174    0.28858    0.42502   1.00
H2       1.03226    0.34297    0.45729   1.00
H2       1.05432    0.26730    0.41536   1.00
H2       1.01407    0.29591    0.39874   1.00
C5       1.00582    0.27062    0.45701   1.00
H2       1.02324    0.26637    0.48403   1.00
C5       0.98953    0.23087    0.44389   1.00
H2       0.98007    0.28959    0.46351   1.00
C5       1.15517    0.39167    0.29036   1.00
H2       1.17715    0.40104    0.26832   1.00
H2       1.13452    0.41648    0.29428   1.00
C5       1.13300    0.35520    0.27635   1.00
C5       1.11725    0.36187    0.23481   1.00
H2       1.35786    0.43159    0.60193   1.00
C5       1.35412    0.49437    0.61478   1.00
H2       1.30823    0.44949    0.61480   1.00
C5       1.19837    0.62210    0.31160   1.00
H2       1.17051    0.62540    0.36934   1.00
H2       1.21793    0.59896    0.36818   1.00
C5       0.96997    0.21044    0.47880   1.00
H2       0.96711    0.23549    0.41977   1.00
H2       1.01437    0.21193    0.43247   1.00
H2       1.10102    0.39087    0.23363   1.00
H2       1.14261    0.36247    0.21330   1.00
C5       1.08917    0.32854    0.22391   1.00
H2       1.36616    0.51273    0.58980   1.00
H2       1.33071    0.51161    0.63092   1.00
H2       1.37874    0.48673    0.63580   1.00
H2       1.18320    0.60422    0.28801   1.00
H2       1.18729    0.65344    0.31059   1.00
H2       1.23121    0.62177    0.30636   1.00
H2       0.95389    0.23297    0.49724   1.00
H2       0.94836    0.18775    0.46767   1.00
H2       0.99319    0.19549    0.49733   1.00
H2       1.05807    0.33717    0.23193   1.00
H2       1.09098    0.32275    0.19121   1.00
H2       1.09766    0.30101    0.24053   1.00
C5       0.78931    0.03282    0.43159   1.00
H2       0.79561    0.01755    0.40372   1.00
H2       0.76578    0.05410    0.42491   1.00
C5       0.77528    0.00306    0.46218   1.00
C5       0.73168    -0.00623   0.45659   1.00
H2       0.77985    0.01485    0.49210   1.00
O3       0.91214    0.18500    0.48576   1.00
C4       0.91523    0.14400    0.41465   1.00
C3c      0.88037    0.12257    0.41256   1.00
H1       0.85278    0.13775    0.41079   1.00
C3d      0.95091    0.12365    0.41637   1.00
C3       0.88042    0.08146    0.41327   1.00
O2       0.84570    0.06252    0.40633   1.00
C3       0.95102    0.08273    0.41784   1.00
H1       0.97900    0.06843    0.42056   1.00
C2       0.91601    0.06061    0.41618   1.00
C5       0.94855    0.18621    0.50500   1.00
H2       0.95781    0.21662    0.51189   1.00
H2       0.97182    0.17234    0.48692   1.00
C5       0.94440    0.16371    0.54315   1.00
H2       0.93409    0.13363    0.53633   1.00
H2       0.92136    0.17802    0.56110   1.00
C5       0.98338    0.16238    0.56544   1.00
H2       0.99399    0.19232    0.57210   1.00
H2       1.00604    0.14689    0.54809   1.00
C5       0.97811    0.14055    0.60435   1.00
C5       1.00099    0.15395    0.38468   1.00
C5       0.82683    0.05430    0.44209   1.00
H2       0.98094    0.17412    0.36905   1.00
H2       1.00629    0.12788    0.36591   1.00
H2       0.81997    0.08200    0.45777   1.00
H2       0.84517    0.03605    0.46200   1.00
H2       0.79115    -0.02530   0.45924   1.00
H2       1.03446    0.22253    0.34879   1.00
H2       1.05437    0.17737    0.32935   1.00
C2       0.91672    0.26895    0.41705   1.00
C3       0.91620    0.24903    0.38099   1.00
O2       0.92588    0.26826    0.34698   1.00
C3       0.91479    0.24674    0.45181   1.00
H1       0.91412    0.26115    0.47985   1.00
C3a      0.91481    0.20787    0.38045   1.00
H1       0.91668    0.19298    0.35269   1.00
C3b      0.91468    0.20578    0.45119   1.00
C4       0.91477    0.18600    0.41535   1.00
O3       0.98581    0.14333    0.42145   1.00
C5       0.89186    0.27780    0.32584   1.00
H2       0.87487    0.25109    0.31810   1.00
C5       0.90498    0.29826    0.28858   1.00
H2       0.87271    0.29774    0.34297   1.00
H2       0.91464    0.27568    0.26730   1.00
H2       0.93126    0.31593    0.29591   1.00
C5       0.87299    0.32418    0.27062   1.00
H2       0.84597    0.30676    0.26637   1.00
C5       0.88611    0.34047    0.23087   1.00
H2       0.86649    0.34993    0.28959   1.00
C5       1.03964    0.17483    0.39167   1.00
H2       1.06168    0.15285    0.40104   1.00
H2       1.03572    0.19548    0.41648   1.00
C5       1.05365    0.19700    0.35520   1.00
C5       1.09519    0.21275    0.36187   1.00
H2       0.72807    -0.02786   0.43159   1.00
C5       0.71522    -0.02412   0.49437   1.00
H2       0.71520    0.02177    0.44949   1.00
C5       1.01840    0.13163    0.62210   1.00
H2       0.96066    0.15949    0.62540   1.00
H2       0.96182    0.11207    0.59896   1.00
C5       0.85120    0.36003    0.21044   1.00
H2       0.91023    0.36289    0.23549   1.00
H2       0.89753    0.31563    0.21193   1.00
H2       1.09637    0.22898    0.39087   1.00
H2       1.11670    0.18739    0.36247   1.00
C5       1.10609    0.24083    0.32854   1.00
H2       0.74020    -0.03616   0.51273   1.00
H2       0.69908    -0.00071   0.51161   1.00
H2       0.69420    -0.04874   0.48673   1.00
H2       1.04199    0.14680    0.60422   1.00
H2       1.01941    0.14271    0.65344   1.00
H2       1.02364    0.09879    0.62177   1.00
H2       0.83276    0.37611    0.23297   1.00
H2       0.86233    0.38164    0.18775   1.00
H2       0.83267    0.33681    0.19549   1.00
H2       1.09807    0.27193    0.33717   1.00
H2       1.13879    0.23902    0.32275   1.00
H2       1.08947    0.23234    0.30101   1.00
C5       0.93159    0.28931    0.03282   1.00
H2       0.90372    0.29561    0.01755   1.00
H2       0.92491    0.26578    0.05410   1.00
C5       0.96218    0.27528    0.00306   1.00
C5       0.95659    0.23168    -0.00623   1.00
H2       0.99210    0.27985    0.01485   1.00
O3       0.98576    0.41214    0.18500   1.00
C4       0.91465    0.41523    0.14400   1.00
C3c      0.91256    0.38037    0.12257   1.00
H1       0.91079    0.35278    0.13775   1.00
C3d      0.91637    0.45091    0.12365   1.00
C3       0.91327    0.38042    0.08146   1.00
O2       0.90633    0.34570    0.06252   1.00
C3       0.91784    0.45102    0.08273   1.00
H1       0.92056    0.47900    0.06843   1.00
C2       0.91618    0.41601    0.06061   1.00
C5       1.00500    0.44855    0.18621   1.00
H2       1.01189    0.45781    0.21662   1.00
H2       0.98692    0.47182    0.17234   1.00
C5       1.04315    0.44440    0.16371   1.00
H2       1.03633    0.43409    0.13363   1.00
H2       1.06110    0.42136    0.17802   1.00
C5       1.06544    0.48338    0.16238   1.00
H2       1.07210    0.49399    0.19232   1.00
H2       1.04809    0.50604    0.14689   1.00
C5       1.10435    0.47811    0.14055   1.00
C5       0.88468    0.50099    0.15395   1.00
C5       0.94209    0.32683    0.05430   1.00
H2       0.86905    0.48094    0.17412   1.00
H2       0.86591    0.50629    0.12788   1.00
H2       0.95777    0.31997    0.08200   1.00
H2       0.96200    0.34517    0.03605   1.00
H2       0.95924    0.29115    -0.02530   1.00
H2       0.84879    0.53446    0.22253   1.00
H2       0.82935    0.55437    0.17737   1.00
C2       0.91705    0.41672    0.26895   1.00
C3       0.88099    0.41620    0.24903   1.00
O2       0.84698    0.42588    0.26826   1.00
C3       0.95181    0.41479    0.24674   1.00
H1       0.97985    0.41412    0.26115   1.00
C3a      0.88045    0.41481    0.20787   1.00
H1       0.85269    0.41668    0.19298   1.00
C3b      0.95119    0.41468    0.20578   1.00
C4       0.91535    0.41477    0.18600   1.00
O3       0.92145    0.48581    0.14333   1.00
C5       0.82584    0.39186    0.27780   1.00
H2       0.81810    0.37487    0.25109   1.00
C5       0.78858    0.40498    0.29826   1.00
H2       0.84297    0.37271    0.29774   1.00
H2       0.76730    0.41464    0.27568   1.00
H2       0.79591    0.43126    0.31593   1.00
C5       0.77062    0.37299    0.32418   1.00
H2       0.76637    0.34597    0.30676   1.00
C5       0.73087    0.38611    0.34047   1.00
H2       0.78959    0.36649    0.34993   1.00
C5       0.89167    0.53964    0.17483   1.00
H2       0.90104    0.56168    0.15285   1.00
H2       0.91648    0.53572    0.19548   1.00
C5       0.85520    0.55365    0.19700   1.00
C5       0.86187    0.59519    0.21275   1.00
H2       0.93159    0.22807    -0.02786   1.00
C5       0.99437    0.21522    -0.02412   1.00
H2       0.94949    0.21520    0.02177   1.00
C5       1.12210    0.51840    0.13163   1.00
H2       1.12540    0.46066    0.15949   1.00
H2       1.09896    0.46182    0.11207   1.00
C5       0.71044    0.35120    0.36003   1.00
H2       0.73549    0.41023    0.36289   1.00
H2       0.71193    0.39753    0.31563   1.00
H2       0.89087    0.59637    0.22898   1.00
H2       0.86247    0.61670    0.18739   1.00
C5       0.82854    0.60609    0.24083   1.00
H2       1.01273    0.24020    -0.03616   1.00
H2       1.01161    0.19908    -0.00071   1.00
H2       0.98673    0.19420    -0.04874   1.00
H2       1.10422    0.54199    0.14680   1.00
H2       1.15344    0.51941    0.14271   1.00
H2       1.12177    0.52364    0.09879   1.00
H2       0.73297    0.33276    0.37611   1.00
H2       0.68775    0.36233    0.38164   1.00
H2       0.69549    0.33267    0.33681   1.00
H2       0.83717    0.59807    0.27193   1.00
H2       0.82275    0.63879    0.23902   1.00
H2       0.80101    0.58947    0.23234   1.00
