data_IRMOF10_SG202_interpen_Ligand11cp_label_o.

_audit_creation_method             'generated by an auxiliary program of Tobunporous'

_symmetry_space_group_name_H-M     'P 1'
_symmetry_Int_Tables_number        1
_symmetry_cell_setting             triclinic

_cell_length_a                    34.2800
_cell_length_b                    34.2800
_cell_length_c                    34.2800
_cell_angle_alpha                 90.0000
_cell_angle_beta                  90.0000
_cell_angle_gamma                 90.0000

loop_
_atom_site_label
_atom_site_fract_x
_atom_site_fract_y
_atom_site_fract_z
_atom_site_occupancy
O1       0.75000    0.75000    0.75000   1.00
Zn1      0.71720    0.78280    0.78280   1.00
Zn1      0.78280    0.71720    0.78280   1.00
Zn1      0.78280    0.78280    0.71720   1.00
Zn1      0.71720    0.71720    0.71720   1.00
O2       0.72650    0.77350    0.83820   1.00
O2       0.72650    0.83820    0.77350   1.00
O2       0.66180    0.77350    0.77350   1.00
O2       0.77350    0.72650    0.83820   1.00
O2       0.83820    0.72650    0.77350   1.00
O2       0.77350    0.66180    0.77350   1.00
O2       0.77350    0.83820    0.72650   1.00
O2       0.83820    0.77350    0.72650   1.00
O2       0.77350    0.77350    0.66180   1.00
O2       0.66180    0.72650    0.72650   1.00
O2       0.72650    0.66180    0.72650   1.00
O2       0.72650    0.72650    0.66180   1.00
C1       0.75000    0.75000    0.85520   1.00
C1       0.75000    0.85520    0.75000   1.00
C1       0.64480    0.75000    0.75000   1.00
C1       0.85520    0.75000    0.75000   1.00
C1       0.75000    0.64480    0.75000   1.00
C1       0.75000    0.75000    0.64480   1.00
O1       0.25000    0.25000    0.75000   1.00
Zn1      0.21720    0.28280    0.78280   1.00
Zn1      0.28280    0.21720    0.78280   1.00
Zn1      0.28280    0.28280    0.71720   1.00
Zn1      0.21720    0.21720    0.71720   1.00
O2       0.22650    0.27350    0.83820   1.00
O2       0.22650    0.33820    0.77350   1.00
O2       0.16180    0.27350    0.77350   1.00
O2       0.27350    0.22650    0.83820   1.00
O2       0.33820    0.22650    0.77350   1.00
O2       0.27350    0.16180    0.77350   1.00
O2       0.27350    0.33820    0.72650   1.00
O2       0.33820    0.27350    0.72650   1.00
O2       0.27350    0.27350    0.66180   1.00
O2       0.16180    0.22650    0.72650   1.00
O2       0.22650    0.16180    0.72650   1.00
O2       0.22650    0.22650    0.66180   1.00
C1       0.25000    0.25000    0.85520   1.00
C1       0.25000    0.35520    0.75000   1.00
C1       0.14480    0.25000    0.75000   1.00
C1       0.35520    0.25000    0.75000   1.00
C1       0.25000    0.14480    0.75000   1.00
C1       0.25000    0.25000    0.64480   1.00
O1       0.25000    0.75000    0.25000   1.00
Zn1      0.21720    0.78280    0.28280   1.00
Zn1      0.28280    0.71720    0.28280   1.00
Zn1      0.28280    0.78280    0.21720   1.00
Zn1      0.21720    0.71720    0.21720   1.00
O2       0.22650    0.77350    0.33820   1.00
O2       0.22650    0.83820    0.27350   1.00
O2       0.16180    0.77350    0.27350   1.00
O2       0.27350    0.72650    0.33820   1.00
O2       0.33820    0.72650    0.27350   1.00
O2       0.27350    0.66180    0.27350   1.00
O2       0.27350    0.83820    0.22650   1.00
O2       0.33820    0.77350    0.22650   1.00
O2       0.27350    0.77350    0.16180   1.00
O2       0.16180    0.72650    0.22650   1.00
O2       0.22650    0.66180    0.22650   1.00
O2       0.22650    0.72650    0.16180   1.00
C1       0.25000    0.75000    0.35520   1.00
C1       0.25000    0.85520    0.25000   1.00
C1       0.14480    0.75000    0.25000   1.00
C1       0.35520    0.75000    0.25000   1.00
C1       0.25000    0.64480    0.25000   1.00
C1       0.25000    0.75000    0.14480   1.00
O1       0.75000    0.25000    0.25000   1.00
Zn1      0.71720    0.28280    0.28280   1.00
Zn1      0.78280    0.21720    0.28280   1.00
Zn1      0.78280    0.28280    0.21720   1.00
Zn1      0.71720    0.21720    0.21720   1.00
O2       0.72650    0.27350    0.33820   1.00
O2       0.72650    0.33820    0.27350   1.00
O2       0.66180    0.27350    0.27350   1.00
O2       0.77350    0.22650    0.33820   1.00
O2       0.83820    0.22650    0.27350   1.00
O2       0.77350    0.16180    0.27350   1.00
O2       0.77350    0.33820    0.22650   1.00
O2       0.83820    0.27350    0.22650   1.00
O2       0.77350    0.27350    0.16180   1.00
O2       0.66180    0.22650    0.22650   1.00
O2       0.72650    0.16180    0.22650   1.00
O2       0.72650    0.22650    0.16180   1.00
C1       0.75000    0.25000    0.35520   1.00
C1       0.75000    0.35520    0.25000   1.00
C1       0.64480    0.25000    0.25000   1.00
C1       0.85520    0.25000    0.25000   1.00
C1       0.75000    0.14480    0.25000   1.00
C1       0.75000    0.25000    0.14480   1.00
O1       0.25000    0.25000    0.25000   1.00
Zn1      0.28280    0.21720    0.21720   1.00
Zn1      0.21720    0.28280    0.21720   1.00
Zn1      0.21720    0.21720    0.28280   1.00
Zn1      0.28280    0.28280    0.28280   1.00
O2       0.27350    0.22650    0.16180   1.00
O2       0.27350    0.16180    0.22650   1.00
O2       0.33820    0.22650    0.22650   1.00
O2       0.22650    0.27350    0.16180   1.00
O2       0.16180    0.27350    0.22650   1.00
O2       0.22650    0.33820    0.22650   1.00
O2       0.22650    0.16180    0.27350   1.00
O2       0.16180    0.22650    0.27350   1.00
O2       0.22650    0.22650    0.33820   1.00
O2       0.33820    0.27350    0.27350   1.00
O2       0.27350    0.33820    0.27350   1.00
O2       0.27350    0.27350    0.33820   1.00
C1       0.25000    0.25000    0.14480   1.00
C1       0.25000    0.14480    0.25000   1.00
C1       0.35520    0.25000    0.25000   1.00
C1       0.14480    0.25000    0.25000   1.00
C1       0.25000    0.35520    0.25000   1.00
C1       0.25000    0.25000    0.35520   1.00
O1       0.75000    0.75000    0.25000   1.00
Zn1      0.78280    0.71720    0.21720   1.00
Zn1      0.71720    0.78280    0.21720   1.00
Zn1      0.71720    0.71720    0.28280   1.00
Zn1      0.78280    0.78280    0.28280   1.00
O2       0.77350    0.72650    0.16180   1.00
O2       0.77350    0.66180    0.22650   1.00
O2       0.83820    0.72650    0.22650   1.00
O2       0.72650    0.77350    0.16180   1.00
O2       0.66180    0.77350    0.22650   1.00
O2       0.72650    0.83820    0.22650   1.00
O2       0.72650    0.66180    0.27350   1.00
O2       0.66180    0.72650    0.27350   1.00
O2       0.72650    0.72650    0.33820   1.00
O2       0.83820    0.77350    0.27350   1.00
O2       0.77350    0.83820    0.27350   1.00
O2       0.77350    0.77350    0.33820   1.00
C1       0.75000    0.75000    0.14480   1.00
C1       0.75000    0.64480    0.25000   1.00
C1       0.85520    0.75000    0.25000   1.00
C1       0.64480    0.75000    0.25000   1.00
C1       0.75000    0.85520    0.25000   1.00
C1       0.75000    0.75000    0.35520   1.00
O1       0.75000    0.25000    0.75000   1.00
Zn1      0.78280    0.21720    0.71720   1.00
Zn1      0.71720    0.28280    0.71720   1.00
Zn1      0.71720    0.21720    0.78280   1.00
Zn1      0.78280    0.28280    0.78280   1.00
O2       0.77350    0.22650    0.66180   1.00
O2       0.77350    0.16180    0.72650   1.00
O2       0.83820    0.22650    0.72650   1.00
O2       0.72650    0.27350    0.66180   1.00
O2       0.66180    0.27350    0.72650   1.00
O2       0.72650    0.33820    0.72650   1.00
O2       0.72650    0.16180    0.77350   1.00
O2       0.66180    0.22650    0.77350   1.00
O2       0.72650    0.22650    0.83820   1.00
O2       0.83820    0.27350    0.77350   1.00
O2       0.77350    0.33820    0.77350   1.00
O2       0.77350    0.27350    0.83820   1.00
C1       0.75000    0.25000    0.64480   1.00
C1       0.75000    0.14480    0.75000   1.00
C1       0.85520    0.25000    0.75000   1.00
C1       0.64480    0.25000    0.75000   1.00
C1       0.75000    0.35520    0.75000   1.00
C1       0.75000    0.25000    0.85520   1.00
O1       0.25000    0.75000    0.75000   1.00
Zn1      0.28280    0.71720    0.71720   1.00
Zn1      0.21720    0.78280    0.71720   1.00
Zn1      0.21720    0.71720    0.78280   1.00
Zn1      0.28280    0.78280    0.78280   1.00
O2       0.27350    0.72650    0.66180   1.00
O2       0.27350    0.66180    0.72650   1.00
O2       0.33820    0.72650    0.72650   1.00
O2       0.22650    0.77350    0.66180   1.00
O2       0.16180    0.77350    0.72650   1.00
O2       0.22650    0.83820    0.72650   1.00
O2       0.22650    0.66180    0.77350   1.00
O2       0.16180    0.72650    0.77350   1.00
O2       0.22650    0.72650    0.83820   1.00
O2       0.33820    0.77350    0.77350   1.00
O2       0.27350    0.83820    0.77350   1.00
O2       0.27350    0.77350    0.83820   1.00
C1       0.25000    0.75000    0.64480   1.00
C1       0.25000    0.64480    0.75000   1.00
C1       0.35520    0.75000    0.75000   1.00
C1       0.14480    0.75000    0.75000   1.00
C1       0.25000    0.85520    0.75000   1.00
C1       0.25000    0.75000    0.85520   1.00
O1       0.91500    0.91500    0.91500   1.00
Zn1      0.88220    0.94780    0.94780   1.00
Zn1      0.94780    0.88220    0.94780   1.00
Zn1      0.94780    0.94780    0.88220   1.00
Zn1      0.88220    0.88220    0.88220   1.00
O2       0.89150    0.93850    1.00320   1.00
O2       0.89150    1.00320    0.93850   1.00
O2       0.82680    0.93850    0.93850   1.00
O2       0.93850    0.89150    1.00320   1.00
O2       1.00320    0.89150    0.93850   1.00
O2       0.93850    0.82680    0.93850   1.00
O2       0.93850    1.00320    0.89150   1.00
O2       1.00320    0.93850    0.89150   1.00
O2       0.93850    0.93850    0.82680   1.00
O2       0.82680    0.89150    0.89150   1.00
O2       0.89150    0.82680    0.89150   1.00
O2       0.89150    0.89150    0.82680   1.00
C1       0.91500    0.91500    1.02020   1.00
C1       0.91500    1.02020    0.91500   1.00
C1       0.80980    0.91500    0.91500   1.00
C1       1.02020    0.91500    0.91500   1.00
C1       0.91500    0.80980    0.91500   1.00
C1       0.91500    0.91500    0.80980   1.00
O1       0.41500    0.41500    0.91500   1.00
Zn1      0.38220    0.44780    0.94780   1.00
Zn1      0.44780    0.38220    0.94780   1.00
Zn1      0.44780    0.44780    0.88220   1.00
Zn1      0.38220    0.38220    0.88220   1.00
O2       0.39150    0.43850    1.00320   1.00
O2       0.39150    0.50320    0.93850   1.00
O2       0.32680    0.43850    0.93850   1.00
O2       0.43850    0.39150    1.00320   1.00
O2       0.50320    0.39150    0.93850   1.00
O2       0.43850    0.32680    0.93850   1.00
O2       0.43850    0.50320    0.89150   1.00
O2       0.50320    0.43850    0.89150   1.00
O2       0.43850    0.43850    0.82680   1.00
O2       0.32680    0.39150    0.89150   1.00
O2       0.39150    0.32680    0.89150   1.00
O2       0.39150    0.39150    0.82680   1.00
C1       0.41500    0.41500    1.02020   1.00
C1       0.41500    0.52020    0.91500   1.00
C1       0.30980    0.41500    0.91500   1.00
C1       0.52020    0.41500    0.91500   1.00
C1       0.41500    0.30980    0.91500   1.00
C1       0.41500    0.41500    0.80980   1.00
O1       0.41500    0.91500    0.41500   1.00
Zn1      0.38220    0.94780    0.44780   1.00
Zn1      0.44780    0.88220    0.44780   1.00
Zn1      0.44780    0.94780    0.38220   1.00
Zn1      0.38220    0.88220    0.38220   1.00
O2       0.39150    0.93850    0.50320   1.00
O2       0.39150    1.00320    0.43850   1.00
O2       0.32680    0.93850    0.43850   1.00
O2       0.43850    0.89150    0.50320   1.00
O2       0.50320    0.89150    0.43850   1.00
O2       0.43850    0.82680    0.43850   1.00
O2       0.43850    1.00320    0.39150   1.00
O2       0.50320    0.93850    0.39150   1.00
O2       0.43850    0.93850    0.32680   1.00
O2       0.32680    0.89150    0.39150   1.00
O2       0.39150    0.82680    0.39150   1.00
O2       0.39150    0.89150    0.32680   1.00
C1       0.41500    0.91500    0.52020   1.00
C1       0.41500    1.02020    0.41500   1.00
C1       0.30980    0.91500    0.41500   1.00
C1       0.52020    0.91500    0.41500   1.00
C1       0.41500    0.80980    0.41500   1.00
C1       0.41500    0.91500    0.30980   1.00
O1       0.91500    0.41500    0.41500   1.00
Zn1      0.88220    0.44780    0.44780   1.00
Zn1      0.94780    0.38220    0.44780   1.00
Zn1      0.94780    0.44780    0.38220   1.00
Zn1      0.88220    0.38220    0.38220   1.00
O2       0.89150    0.43850    0.50320   1.00
O2       0.89150    0.50320    0.43850   1.00
O2       0.82680    0.43850    0.43850   1.00
O2       0.93850    0.39150    0.50320   1.00
O2       1.00320    0.39150    0.43850   1.00
O2       0.93850    0.32680    0.43850   1.00
O2       0.93850    0.50320    0.39150   1.00
O2       1.00320    0.43850    0.39150   1.00
O2       0.93850    0.43850    0.32680   1.00
O2       0.82680    0.39150    0.39150   1.00
O2       0.89150    0.32680    0.39150   1.00
O2       0.89150    0.39150    0.32680   1.00
C1       0.91500    0.41500    0.52020   1.00
C1       0.91500    0.52020    0.41500   1.00
C1       0.80980    0.41500    0.41500   1.00
C1       1.02020    0.41500    0.41500   1.00
C1       0.91500    0.30980    0.41500   1.00
C1       0.91500    0.41500    0.30980   1.00
O1       0.41500    0.41500    0.41500   1.00
Zn1      0.44780    0.38220    0.38220   1.00
Zn1      0.38220    0.44780    0.38220   1.00
Zn1      0.38220    0.38220    0.44780   1.00
Zn1      0.44780    0.44780    0.44780   1.00
O2       0.43850    0.39150    0.32680   1.00
O2       0.43850    0.32680    0.39150   1.00
O2       0.50320    0.39150    0.39150   1.00
O2       0.39150    0.43850    0.32680   1.00
O2       0.32680    0.43850    0.39150   1.00
O2       0.39150    0.50320    0.39150   1.00
O2       0.39150    0.32680    0.43850   1.00
O2       0.32680    0.39150    0.43850   1.00
O2       0.39150    0.39150    0.50320   1.00
O2       0.50320    0.43850    0.43850   1.00
O2       0.43850    0.50320    0.43850   1.00
O2       0.43850    0.43850    0.50320   1.00
C1       0.41500    0.41500    0.30980   1.00
C1       0.41500    0.30980    0.41500   1.00
C1       0.52020    0.41500    0.41500   1.00
C1       0.30980    0.41500    0.41500   1.00
C1       0.41500    0.52020    0.41500   1.00
C1       0.41500    0.41500    0.52020   1.00
O1       0.91500    0.91500    0.41500   1.00
Zn1      0.94780    0.88220    0.38220   1.00
Zn1      0.88220    0.94780    0.38220   1.00
Zn1      0.88220    0.88220    0.44780   1.00
Zn1      0.94780    0.94780    0.44780   1.00
O2       0.93850    0.89150    0.32680   1.00
O2       0.93850    0.82680    0.39150   1.00
O2       1.00320    0.89150    0.39150   1.00
O2       0.89150    0.93850    0.32680   1.00
O2       0.82680    0.93850    0.39150   1.00
O2       0.89150    1.00320    0.39150   1.00
O2       0.89150    0.82680    0.43850   1.00
O2       0.82680    0.89150    0.43850   1.00
O2       0.89150    0.89150    0.50320   1.00
O2       1.00320    0.93850    0.43850   1.00
O2       0.93850    1.00320    0.43850   1.00
O2       0.93850    0.93850    0.50320   1.00
C1       0.91500    0.91500    0.30980   1.00
C1       0.91500    0.80980    0.41500   1.00
C1       1.02020    0.91500    0.41500   1.00
C1       0.80980    0.91500    0.41500   1.00
C1       0.91500    1.02020    0.41500   1.00
C1       0.91500    0.91500    0.52020   1.00
O1       0.91500    0.41500    0.91500   1.00
Zn1      0.94780    0.38220    0.88220   1.00
Zn1      0.88220    0.44780    0.88220   1.00
Zn1      0.88220    0.38220    0.94780   1.00
Zn1      0.94780    0.44780    0.94780   1.00
O2       0.93850    0.39150    0.82680   1.00
O2       0.93850    0.32680    0.89150   1.00
O2       1.00320    0.39150    0.89150   1.00
O2       0.89150    0.43850    0.82680   1.00
O2       0.82680    0.43850    0.89150   1.00
O2       0.89150    0.50320    0.89150   1.00
O2       0.89150    0.32680    0.93850   1.00
O2       0.82680    0.39150    0.93850   1.00
O2       0.89150    0.39150    1.00320   1.00
O2       1.00320    0.43850    0.93850   1.00
O2       0.93850    0.50320    0.93850   1.00
O2       0.93850    0.43850    1.00320   1.00
C1       0.91500    0.41500    0.80980   1.00
C1       0.91500    0.30980    0.91500   1.00
C1       1.02020    0.41500    0.91500   1.00
C1       0.80980    0.41500    0.91500   1.00
C1       0.91500    0.52020    0.91500   1.00
C1       0.91500    0.41500    1.02020   1.00
O1       0.41500    0.91500    0.91500   1.00
Zn1      0.44780    0.88220    0.88220   1.00
Zn1      0.38220    0.94780    0.88220   1.00
Zn1      0.38220    0.88220    0.94780   1.00
Zn1      0.44780    0.94780    0.94780   1.00
O2       0.43850    0.89150    0.82680   1.00
O2       0.43850    0.82680    0.89150   1.00
O2       0.50320    0.89150    0.89150   1.00
O2       0.39150    0.93850    0.82680   1.00
O2       0.32680    0.93850    0.89150   1.00
O2       0.39150    1.00320    0.89150   1.00
O2       0.39150    0.82680    0.93850   1.00
O2       0.32680    0.89150    0.93850   1.00
O2       0.39150    0.89150    1.00320   1.00
O2       0.50320    0.93850    0.93850   1.00
O2       0.43850    1.00320    0.93850   1.00
O2       0.43850    0.93850    1.00320   1.00
C1       0.41500    0.91500    0.80980   1.00
C1       0.41500    0.80980    0.91500   1.00
C1       0.52020    0.91500    0.91500   1.00
C1       0.30980    0.91500    0.91500   1.00
C1       0.41500    1.02020    0.91500   1.00
C1       0.41500    0.91500    1.02020   1.00
C4       0.74988    0.74985    0.97915   1.00
C4       0.75012    0.75015    1.02085   1.00
C3a      0.75058    0.71427    0.95746   1.00
C3       0.71570    0.74318    1.04232   1.00
C3       0.74880    0.78495    0.95768   1.00
C3a      0.78492    0.75759    1.04254   1.00
C2       0.74993    0.75005    0.89488   1.00
C2       0.74994    0.75005    1.10512   1.00
C3       0.75068    0.71495    0.91595   1.00
C3       0.71568    0.74303    1.08363   1.00
C3       0.74895    0.78501    0.91637   1.00
C3       0.78428    0.75735    1.08405   1.00
C5       0.75187    0.67506    0.97772   1.00
H1       0.68871    0.73743    1.02691   1.00
H1       0.75142    0.68784    0.89979   1.00
H1       0.68869    0.73733    1.09901   1.00
H1       0.74833    0.81258    0.90099   1.00
H1       0.81084    0.76282    1.10021   1.00
C5       0.82339    0.76530    1.02228   1.00
H1       0.74824    0.81254    0.97309   1.00
H2       0.84791    0.75920    1.04256   1.00
H2       0.82716    0.74499    0.99731   1.00
H2       0.76341    0.65257    0.95744   1.00
H2       0.77250    0.67603    1.00269   1.00
N1       0.82566    0.80568    1.00857   1.00
C6       0.82692    0.83773    1.03073   1.00
C6       0.82799    0.81749    0.97154   1.00
C6       0.82956    0.87046    1.00759   1.00
C6       0.83025    0.85759    0.96995   1.00
H3       0.82565    0.83752    1.06197   1.00
H3       0.82774    0.79817    0.94700   1.00
H3       0.83087    0.90037    1.01713   1.00
H3       0.83215    0.87545    0.94425   1.00
N1       0.71308    0.66362    0.99143   1.00
C6       0.70211    0.65866    1.02846   1.00
C6       0.68216    0.65508    0.96927   1.00
C6       0.66359    0.64730    1.03005   1.00
C6       0.65090    0.64503    0.99241   1.00
H3       0.72086    0.66331    1.05300   1.00
H3       0.68207    0.65636    0.93803   1.00
H3       0.64663    0.64136    1.05575   1.00
H3       0.62208    0.63691    0.98287   1.00
C4       0.74985    0.97915    0.74988   1.00
C4       0.75015    1.02085    0.75012   1.00
C3a      0.71427    0.95746    0.75058   1.00
C3       0.74318    1.04232    0.71570   1.00
C3       0.78495    0.95768    0.74880   1.00
C3a      0.75759    1.04254    0.78492   1.00
C2       0.75005    0.89488    0.74993   1.00
C2       0.75005    1.10512    0.74994   1.00
C3       0.71495    0.91595    0.75068   1.00
C3       0.74303    1.08363    0.71568   1.00
C3       0.78501    0.91637    0.74895   1.00
C3       0.75735    1.08405    0.78428   1.00
C5       0.67506    0.97772    0.75187   1.00
H1       0.73743    1.02691    0.68871   1.00
H1       0.68784    0.89979    0.75142   1.00
H1       0.73733    1.09901    0.68869   1.00
H1       0.81258    0.90099    0.74833   1.00
H1       0.76282    1.10021    0.81084   1.00
C5       0.76530    1.02228    0.82339   1.00
H1       0.81254    0.97309    0.74824   1.00
H2       0.75920    1.04256    0.84791   1.00
H2       0.74499    0.99731    0.82716   1.00
H2       0.65257    0.95744    0.76341   1.00
H2       0.67603    1.00269    0.77250   1.00
N1       0.80568    1.00857    0.82566   1.00
C6       0.83773    1.03073    0.82692   1.00
C6       0.81749    0.97154    0.82799   1.00
C6       0.87046    1.00759    0.82956   1.00
C6       0.85759    0.96995    0.83025   1.00
H3       0.83752    1.06197    0.82565   1.00
H3       0.79817    0.94700    0.82774   1.00
H3       0.90037    1.01713    0.83087   1.00
H3       0.87545    0.94425    0.83215   1.00
N1       0.66362    0.99143    0.71308   1.00
C6       0.65866    1.02846    0.70211   1.00
C6       0.65508    0.96927    0.68216   1.00
C6       0.64730    1.03005    0.66359   1.00
C6       0.64503    0.99241    0.65090   1.00
H3       0.66331    1.05300    0.72086   1.00
H3       0.65636    0.93803    0.68207   1.00
H3       0.64136    1.05575    0.64663   1.00
H3       0.63691    0.98287    0.62208   1.00
C4       0.52085    0.74988    0.75015   1.00
C4       0.47915    0.75012    0.74985   1.00
C3a      0.54254    0.75058    0.78573   1.00
C3       0.45768    0.71570    0.75682   1.00
C3       0.54232    0.74880    0.71505   1.00
C3a      0.45746    0.78492    0.74241   1.00
C2       0.60512    0.74993    0.74995   1.00
C2       0.39488    0.74994    0.74995   1.00
C3       0.58405    0.75068    0.78505   1.00
C3       0.41637    0.71568    0.75697   1.00
C3       0.58363    0.74895    0.71499   1.00
C3       0.41595    0.78428    0.74265   1.00
C5       0.52228    0.75187    0.82494   1.00
H1       0.47309    0.68871    0.76257   1.00
H1       0.60021    0.75142    0.81216   1.00
H1       0.40099    0.68869    0.76267   1.00
H1       0.59901    0.74833    0.68742   1.00
H1       0.39979    0.81084    0.73718   1.00
C5       0.47772    0.82339    0.73470   1.00
H1       0.52691    0.74824    0.68746   1.00
H2       0.45744    0.84791    0.74080   1.00
H2       0.50269    0.82716    0.75501   1.00
H2       0.54256    0.76341    0.84743   1.00
H2       0.49731    0.77250    0.82397   1.00
N1       0.49143    0.82566    0.69432   1.00
C6       0.46927    0.82692    0.66227   1.00
C6       0.52846    0.82799    0.68251   1.00
C6       0.49241    0.82956    0.62954   1.00
C6       0.53005    0.83025    0.64241   1.00
H3       0.43803    0.82565    0.66248   1.00
H3       0.55300    0.82774    0.70183   1.00
H3       0.48287    0.83087    0.59963   1.00
H3       0.55575    0.83215    0.62455   1.00
N1       0.50857    0.71308    0.83638   1.00
C6       0.47154    0.70211    0.84134   1.00
C6       0.53073    0.68216    0.84492   1.00
C6       0.46995    0.66359    0.85270   1.00
C6       0.50759    0.65090    0.85497   1.00
H3       0.44700    0.72086    0.83669   1.00
H3       0.56197    0.68207    0.84364   1.00
H3       0.44425    0.64663    0.85864   1.00
H3       0.51713    0.62208    0.86309   1.00
C4       0.97915    0.74988    0.74985   1.00
C4       1.02085    0.75012    0.75015   1.00
C3a      0.95746    0.75058    0.71427   1.00
C3       1.04232    0.71570    0.74318   1.00
C3       0.95768    0.74880    0.78495   1.00
C3a      1.04254    0.78492    0.75759   1.00
C2       0.89488    0.74993    0.75005   1.00
C2       1.10512    0.74994    0.75005   1.00
C3       0.91595    0.75068    0.71495   1.00
C3       1.08363    0.71568    0.74303   1.00
C3       0.91637    0.74895    0.78501   1.00
C3       1.08405    0.78428    0.75735   1.00
C5       0.97772    0.75187    0.67506   1.00
H1       1.02691    0.68871    0.73743   1.00
H1       0.89979    0.75142    0.68784   1.00
H1       1.09901    0.68869    0.73733   1.00
H1       0.90099    0.74833    0.81258   1.00
H1       1.10021    0.81084    0.76282   1.00
C5       1.02228    0.82339    0.76530   1.00
H1       0.97309    0.74824    0.81254   1.00
H2       1.04256    0.84791    0.75920   1.00
H2       0.99731    0.82716    0.74499   1.00
H2       0.95744    0.76341    0.65257   1.00
H2       1.00269    0.77250    0.67603   1.00
N1       1.00857    0.82566    0.80568   1.00
C6       1.03073    0.82692    0.83773   1.00
C6       0.97154    0.82799    0.81749   1.00
C6       1.00759    0.82956    0.87046   1.00
C6       0.96995    0.83025    0.85759   1.00
H3       1.06197    0.82565    0.83752   1.00
H3       0.94700    0.82774    0.79817   1.00
H3       1.01713    0.83087    0.90037   1.00
H3       0.94425    0.83215    0.87545   1.00
N1       0.99143    0.71308    0.66362   1.00
C6       1.02846    0.70211    0.65866   1.00
C6       0.96927    0.68216    0.65508   1.00
C6       1.03005    0.66359    0.64730   1.00
C6       0.99241    0.65090    0.64503   1.00
H3       1.05300    0.72086    0.66331   1.00
H3       0.93803    0.68207    0.65636   1.00
H3       1.05575    0.64663    0.64136   1.00
H3       0.98287    0.62208    0.63691   1.00
C4       0.75015    0.52085    0.74988   1.00
C4       0.74985    0.47915    0.75012   1.00
C3a      0.78573    0.54254    0.75058   1.00
C3       0.75682    0.45768    0.71570   1.00
C3       0.71505    0.54232    0.74880   1.00
C3a      0.74241    0.45746    0.78492   1.00
C2       0.74995    0.60512    0.74993   1.00
C2       0.74995    0.39488    0.74994   1.00
C3       0.78505    0.58405    0.75068   1.00
C3       0.75697    0.41637    0.71568   1.00
C3       0.71499    0.58363    0.74895   1.00
C3       0.74265    0.41595    0.78428   1.00
C5       0.82494    0.52228    0.75187   1.00
H1       0.76257    0.47309    0.68871   1.00
H1       0.81216    0.60021    0.75142   1.00
H1       0.76267    0.40099    0.68869   1.00
H1       0.68742    0.59901    0.74833   1.00
H1       0.73718    0.39979    0.81084   1.00
C5       0.73470    0.47772    0.82339   1.00
H1       0.68746    0.52691    0.74824   1.00
H2       0.74080    0.45744    0.84791   1.00
H2       0.75501    0.50269    0.82716   1.00
H2       0.84743    0.54256    0.76341   1.00
H2       0.82397    0.49731    0.77250   1.00
N1       0.69432    0.49143    0.82566   1.00
C6       0.66227    0.46927    0.82692   1.00
C6       0.68251    0.52846    0.82799   1.00
C6       0.62954    0.49241    0.82956   1.00
C6       0.64241    0.53005    0.83025   1.00
H3       0.66248    0.43803    0.82565   1.00
H3       0.70183    0.55300    0.82774   1.00
H3       0.59963    0.48287    0.83087   1.00
H3       0.62455    0.55575    0.83215   1.00
N1       0.83638    0.50857    0.71308   1.00
C6       0.84134    0.47154    0.70211   1.00
C6       0.84492    0.53073    0.68216   1.00
C6       0.85270    0.46995    0.66359   1.00
C6       0.85497    0.50759    0.65090   1.00
H3       0.83669    0.44700    0.72086   1.00
H3       0.84364    0.56197    0.68207   1.00
H3       0.85864    0.44425    0.64663   1.00
H3       0.86309    0.51713    0.62208   1.00
C4       0.74988    0.75015    0.52085   1.00
C4       0.75012    0.74985    0.47915   1.00
C3a      0.75058    0.78573    0.54254   1.00
C3       0.71570    0.75682    0.45768   1.00
C3       0.74880    0.71505    0.54232   1.00
C3a      0.78492    0.74241    0.45746   1.00
C2       0.74993    0.74995    0.60512   1.00
C2       0.74994    0.74995    0.39488   1.00
C3       0.75068    0.78505    0.58405   1.00
C3       0.71568    0.75697    0.41637   1.00
C3       0.74895    0.71499    0.58363   1.00
C3       0.78428    0.74265    0.41595   1.00
C5       0.75187    0.82494    0.52228   1.00
H1       0.68871    0.76257    0.47309   1.00
H1       0.75142    0.81216    0.60021   1.00
H1       0.68869    0.76267    0.40099   1.00
H1       0.74833    0.68742    0.59901   1.00
H1       0.81084    0.73718    0.39979   1.00
C5       0.82339    0.73470    0.47772   1.00
H1       0.74824    0.68746    0.52691   1.00
H2       0.84791    0.74080    0.45744   1.00
H2       0.82716    0.75501    0.50269   1.00
H2       0.76341    0.84743    0.54256   1.00
H2       0.77250    0.82397    0.49731   1.00
N1       0.82566    0.69432    0.49143   1.00
C6       0.82692    0.66227    0.46927   1.00
C6       0.82799    0.68251    0.52846   1.00
C6       0.82956    0.62954    0.49241   1.00
C6       0.83025    0.64241    0.53005   1.00
H3       0.82565    0.66248    0.43803   1.00
H3       0.82774    0.70183    0.55300   1.00
H3       0.83087    0.59963    0.48287   1.00
H3       0.83215    0.62455    0.55575   1.00
N1       0.71308    0.83638    0.50857   1.00
C6       0.70211    0.84134    0.47154   1.00
C6       0.68216    0.84492    0.53073   1.00
C6       0.66359    0.85270    0.46995   1.00
C6       0.65090    0.85497    0.50759   1.00
H3       0.72086    0.83669    0.44700   1.00
H3       0.68207    0.84364    0.56197   1.00
H3       0.64663    0.85864    0.44425   1.00
H3       0.62208    0.86309    0.51713   1.00
C4       0.24988    0.24985    0.97915   1.00
C4       0.25012    0.25015    1.02085   1.00
C3a      0.25058    0.21427    0.95746   1.00
C3       0.21570    0.24318    1.04232   1.00
C3       0.24880    0.28495    0.95768   1.00
C3a      0.28492    0.25759    1.04254   1.00
C2       0.24993    0.25005    0.89488   1.00
C2       0.24994    0.25005    1.10512   1.00
C3       0.25068    0.21495    0.91595   1.00
C3       0.21568    0.24303    1.08363   1.00
C3       0.24895    0.28501    0.91637   1.00
C3       0.28428    0.25735    1.08405   1.00
C5       0.25187    0.17506    0.97772   1.00
H1       0.18871    0.23743    1.02691   1.00
H1       0.25142    0.18784    0.89979   1.00
H1       0.18869    0.23733    1.09901   1.00
H1       0.24833    0.31258    0.90099   1.00
H1       0.31084    0.26282    1.10021   1.00
C5       0.32339    0.26530    1.02228   1.00
H1       0.24824    0.31254    0.97309   1.00
H2       0.34791    0.25920    1.04256   1.00
H2       0.32716    0.24499    0.99731   1.00
H2       0.26341    0.15257    0.95744   1.00
H2       0.27250    0.17603    1.00269   1.00
N1       0.32566    0.30568    1.00857   1.00
C6       0.32692    0.33773    1.03073   1.00
C6       0.32799    0.31749    0.97154   1.00
C6       0.32956    0.37046    1.00759   1.00
C6       0.33025    0.35759    0.96995   1.00
H3       0.32565    0.33752    1.06197   1.00
H3       0.32774    0.29817    0.94700   1.00
H3       0.33087    0.40037    1.01713   1.00
H3       0.33215    0.37545    0.94425   1.00
N1       0.21308    0.16362    0.99143   1.00
C6       0.20211    0.15866    1.02846   1.00
C6       0.18216    0.15508    0.96927   1.00
C6       0.16359    0.14730    1.03005   1.00
C6       0.15090    0.14503    0.99241   1.00
H3       0.22086    0.16331    1.05300   1.00
H3       0.18207    0.15636    0.93803   1.00
H3       0.14663    0.14136    1.05575   1.00
H3       0.12208    0.13691    0.98287   1.00
C4       0.24985    0.47915    0.74988   1.00
C4       0.25015    0.52085    0.75012   1.00
C3a      0.21427    0.45746    0.75058   1.00
C3       0.24318    0.54232    0.71570   1.00
C3       0.28495    0.45768    0.74880   1.00
C3a      0.25759    0.54254    0.78492   1.00
C2       0.25005    0.39488    0.74993   1.00
C2       0.25005    0.60512    0.74994   1.00
C3       0.21495    0.41595    0.75068   1.00
C3       0.24303    0.58363    0.71568   1.00
C3       0.28501    0.41637    0.74895   1.00
C3       0.25735    0.58405    0.78428   1.00
C5       0.17506    0.47772    0.75187   1.00
H1       0.23743    0.52691    0.68871   1.00
H1       0.18784    0.39979    0.75142   1.00
H1       0.23733    0.59901    0.68869   1.00
H1       0.31258    0.40099    0.74833   1.00
H1       0.26282    0.60021    0.81084   1.00
C5       0.26530    0.52228    0.82339   1.00
H1       0.31254    0.47309    0.74824   1.00
H2       0.25920    0.54256    0.84791   1.00
H2       0.24499    0.49731    0.82716   1.00
H2       0.15257    0.45744    0.76341   1.00
H2       0.17603    0.50269    0.77250   1.00
N1       0.30568    0.50857    0.82566   1.00
C6       0.33773    0.53073    0.82692   1.00
C6       0.31749    0.47154    0.82799   1.00
C6       0.37046    0.50759    0.82956   1.00
C6       0.35759    0.46995    0.83025   1.00
H3       0.33752    0.56197    0.82565   1.00
H3       0.29817    0.44700    0.82774   1.00
H3       0.40037    0.51713    0.83087   1.00
H3       0.37545    0.44425    0.83215   1.00
N1       0.16362    0.49143    0.71308   1.00
C6       0.15866    0.52846    0.70211   1.00
C6       0.15508    0.46927    0.68216   1.00
C6       0.14730    0.53005    0.66359   1.00
C6       0.14503    0.49241    0.65090   1.00
H3       0.16331    0.55300    0.72086   1.00
H3       0.15636    0.43803    0.68207   1.00
H3       0.14136    0.55575    0.64663   1.00
H3       0.13691    0.48287    0.62208   1.00
C4       0.02085    0.24988    0.75015   1.00
C4       -0.02085   0.25012    0.74985   1.00
C3a      0.04254    0.25058    0.78573   1.00
C3       -0.04232   0.21570    0.75682   1.00
C3       0.04232    0.24880    0.71505   1.00
C3a      -0.04254   0.28492    0.74241   1.00
C2       0.10512    0.24993    0.74995   1.00
C2       -0.10512   0.24994    0.74995   1.00
C3       0.08405    0.25068    0.78505   1.00
C3       -0.08363   0.21568    0.75697   1.00
C3       0.08363    0.24895    0.71499   1.00
C3       -0.08405   0.28428    0.74265   1.00
C5       0.02228    0.25187    0.82494   1.00
H1       -0.02691   0.18871    0.76257   1.00
H1       0.10021    0.25142    0.81216   1.00
H1       -0.09901   0.18869    0.76267   1.00
H1       0.09901    0.24833    0.68742   1.00
H1       -0.10021   0.31084    0.73718   1.00
C5       -0.02228   0.32339    0.73470   1.00
H1       0.02691    0.24824    0.68746   1.00
H2       -0.04256   0.34791    0.74080   1.00
H2       0.00269    0.32716    0.75501   1.00
H2       0.04256    0.26341    0.84743   1.00
H2       -0.00269   0.27250    0.82397   1.00
N1       -0.00857   0.32566    0.69432   1.00
C6       -0.03073   0.32692    0.66227   1.00
C6       0.02846    0.32799    0.68251   1.00
C6       -0.00759   0.32956    0.62954   1.00
C6       0.03005    0.33025    0.64241   1.00
H3       -0.06197   0.32565    0.66248   1.00
H3       0.05300    0.32774    0.70183   1.00
H3       -0.01713   0.33087    0.59963   1.00
H3       0.05575    0.33215    0.62455   1.00
N1       0.00857    0.21308    0.83638   1.00
C6       -0.02846   0.20211    0.84134   1.00
C6       0.03073    0.18216    0.84492   1.00
C6       -0.03005   0.16359    0.85270   1.00
C6       0.00759    0.15090    0.85497   1.00
H3       -0.05300   0.22086    0.83669   1.00
H3       0.06197    0.18207    0.84364   1.00
H3       -0.05575   0.14663    0.85864   1.00
H3       0.01713    0.12208    0.86309   1.00
C4       0.47915    0.24988    0.74985   1.00
C4       0.52085    0.25012    0.75015   1.00
C3a      0.45746    0.25058    0.71427   1.00
C3       0.54232    0.21570    0.74318   1.00
C3       0.45768    0.24880    0.78495   1.00
C3a      0.54254    0.28492    0.75759   1.00
C2       0.39488    0.24993    0.75005   1.00
C2       0.60512    0.24994    0.75005   1.00
C3       0.41595    0.25068    0.71495   1.00
C3       0.58363    0.21568    0.74303   1.00
C3       0.41637    0.24895    0.78501   1.00
C3       0.58405    0.28428    0.75735   1.00
C5       0.47772    0.25187    0.67506   1.00
H1       0.52691    0.18871    0.73743   1.00
H1       0.39979    0.25142    0.68784   1.00
H1       0.59901    0.18869    0.73733   1.00
H1       0.40099    0.24833    0.81258   1.00
H1       0.60021    0.31084    0.76282   1.00
C5       0.52228    0.32339    0.76530   1.00
H1       0.47309    0.24824    0.81254   1.00
H2       0.54256    0.34791    0.75920   1.00
H2       0.49731    0.32716    0.74499   1.00
H2       0.45744    0.26341    0.65257   1.00
H2       0.50269    0.27250    0.67603   1.00
N1       0.50857    0.32566    0.80568   1.00
C6       0.53073    0.32692    0.83773   1.00
C6       0.47154    0.32799    0.81749   1.00
C6       0.50759    0.32956    0.87046   1.00
C6       0.46995    0.33025    0.85759   1.00
H3       0.56197    0.32565    0.83752   1.00
H3       0.44700    0.32774    0.79817   1.00
H3       0.51713    0.33087    0.90037   1.00
H3       0.44425    0.33215    0.87545   1.00
N1       0.49143    0.21308    0.66362   1.00
C6       0.52846    0.20211    0.65866   1.00
C6       0.46927    0.18216    0.65508   1.00
C6       0.53005    0.16359    0.64730   1.00
C6       0.49241    0.15090    0.64503   1.00
H3       0.55300    0.22086    0.66331   1.00
H3       0.43803    0.18207    0.65636   1.00
H3       0.55575    0.14663    0.64136   1.00
H3       0.48287    0.12208    0.63691   1.00
C4       0.25015    0.02085    0.74988   1.00
C4       0.24985    -0.02085   0.75012   1.00
C3a      0.28573    0.04254    0.75058   1.00
C3       0.25682    -0.04232   0.71570   1.00
C3       0.21505    0.04232    0.74880   1.00
C3a      0.24241    -0.04254   0.78492   1.00
C2       0.24995    0.10512    0.74993   1.00
C2       0.24995    -0.10512   0.74994   1.00
C3       0.28505    0.08405    0.75068   1.00
C3       0.25697    -0.08363   0.71568   1.00
C3       0.21499    0.08363    0.74895   1.00
C3       0.24265    -0.08405   0.78428   1.00
C5       0.32494    0.02228    0.75187   1.00
H1       0.26257    -0.02691   0.68871   1.00
H1       0.31216    0.10021    0.75142   1.00
H1       0.26267    -0.09901   0.68869   1.00
H1       0.18742    0.09901    0.74833   1.00
H1       0.23718    -0.10021   0.81084   1.00
C5       0.23470    -0.02228   0.82339   1.00
H1       0.18746    0.02691    0.74824   1.00
H2       0.24080    -0.04256   0.84791   1.00
H2       0.25501    0.00269    0.82716   1.00
H2       0.34743    0.04256    0.76341   1.00
H2       0.32397    -0.00269   0.77250   1.00
N1       0.19432    -0.00857   0.82566   1.00
C6       0.16227    -0.03073   0.82692   1.00
C6       0.18251    0.02846    0.82799   1.00
C6       0.12954    -0.00759   0.82956   1.00
C6       0.14241    0.03005    0.83025   1.00
H3       0.16248    -0.06197   0.82565   1.00
H3       0.20183    0.05300    0.82774   1.00
H3       0.09963    -0.01713   0.83087   1.00
H3       0.12455    0.05575    0.83215   1.00
N1       0.33638    0.00857    0.71308   1.00
C6       0.34134    -0.02846   0.70211   1.00
C6       0.34492    0.03073    0.68216   1.00
C6       0.35270    -0.03005   0.66359   1.00
C6       0.35497    0.00759    0.65090   1.00
H3       0.33669    -0.05300   0.72086   1.00
H3       0.34364    0.06197    0.68207   1.00
H3       0.35864    -0.05575   0.64663   1.00
H3       0.36309    0.01713    0.62208   1.00
C4       0.24988    0.25015    0.52085   1.00
C4       0.25012    0.24985    0.47915   1.00
C3a      0.25058    0.28573    0.54254   1.00
C3       0.21570    0.25682    0.45768   1.00
C3       0.24880    0.21505    0.54232   1.00
C3a      0.28492    0.24241    0.45746   1.00
C2       0.24993    0.24995    0.60512   1.00
C2       0.24994    0.24995    0.39488   1.00
C3       0.25068    0.28505    0.58405   1.00
C3       0.21568    0.25697    0.41637   1.00
C3       0.24895    0.21499    0.58363   1.00
C3       0.28428    0.24265    0.41595   1.00
C5       0.25187    0.32494    0.52228   1.00
H1       0.18871    0.26257    0.47309   1.00
H1       0.25142    0.31216    0.60021   1.00
H1       0.18869    0.26267    0.40099   1.00
H1       0.24833    0.18742    0.59901   1.00
H1       0.31084    0.23718    0.39979   1.00
C5       0.32339    0.23470    0.47772   1.00
H1       0.24824    0.18746    0.52691   1.00
H2       0.34791    0.24080    0.45744   1.00
H2       0.32716    0.25501    0.50269   1.00
H2       0.26341    0.34743    0.54256   1.00
H2       0.27250    0.32397    0.49731   1.00
N1       0.32566    0.19432    0.49143   1.00
C6       0.32692    0.16227    0.46927   1.00
C6       0.32799    0.18251    0.52846   1.00
C6       0.32956    0.12954    0.49241   1.00
C6       0.33025    0.14241    0.53005   1.00
H3       0.32565    0.16248    0.43803   1.00
H3       0.32774    0.20183    0.55300   1.00
H3       0.33087    0.09963    0.48287   1.00
H3       0.33215    0.12455    0.55575   1.00
N1       0.21308    0.33638    0.50857   1.00
C6       0.20211    0.34134    0.47154   1.00
C6       0.18216    0.34492    0.53073   1.00
C6       0.16359    0.35270    0.46995   1.00
C6       0.15090    0.35497    0.50759   1.00
H3       0.22086    0.33669    0.44700   1.00
H3       0.18207    0.34364    0.56197   1.00
H3       0.14663    0.35864    0.44425   1.00
H3       0.12208    0.36309    0.51713   1.00
C4       0.24988    0.74985    0.47915   1.00
C4       0.25012    0.75015    0.52085   1.00
C3a      0.25058    0.71427    0.45746   1.00
C3       0.21570    0.74318    0.54232   1.00
C3       0.24880    0.78495    0.45768   1.00
C3a      0.28492    0.75759    0.54254   1.00
C2       0.24993    0.75005    0.39488   1.00
C2       0.24994    0.75005    0.60512   1.00
C3       0.25068    0.71495    0.41595   1.00
C3       0.21568    0.74303    0.58363   1.00
C3       0.24895    0.78501    0.41637   1.00
C3       0.28428    0.75735    0.58405   1.00
C5       0.25187    0.67506    0.47772   1.00
H1       0.18871    0.73743    0.52691   1.00
H1       0.25142    0.68784    0.39979   1.00
H1       0.18869    0.73733    0.59901   1.00
H1       0.24833    0.81258    0.40099   1.00
H1       0.31084    0.76282    0.60021   1.00
C5       0.32339    0.76530    0.52228   1.00
H1       0.24824    0.81254    0.47309   1.00
H2       0.34791    0.75920    0.54256   1.00
H2       0.32716    0.74499    0.49731   1.00
H2       0.26341    0.65257    0.45744   1.00
H2       0.27250    0.67603    0.50269   1.00
N1       0.32566    0.80568    0.50857   1.00
C6       0.32692    0.83773    0.53073   1.00
C6       0.32799    0.81749    0.47154   1.00
C6       0.32956    0.87046    0.50759   1.00
C6       0.33025    0.85759    0.46995   1.00
H3       0.32565    0.83752    0.56197   1.00
H3       0.32774    0.79817    0.44700   1.00
H3       0.33087    0.90037    0.51713   1.00
H3       0.33215    0.87545    0.44425   1.00
N1       0.21308    0.66362    0.49143   1.00
C6       0.20211    0.65866    0.52846   1.00
C6       0.18216    0.65508    0.46927   1.00
C6       0.16359    0.64730    0.53005   1.00
C6       0.15090    0.64503    0.49241   1.00
H3       0.22086    0.66331    0.55300   1.00
H3       0.18207    0.65636    0.43803   1.00
H3       0.14663    0.64136    0.55575   1.00
H3       0.12208    0.63691    0.48287   1.00
C4       0.24985    0.97915    0.24988   1.00
C4       0.25015    1.02085    0.25012   1.00
C3a      0.21427    0.95746    0.25058   1.00
C3       0.24318    1.04232    0.21570   1.00
C3       0.28495    0.95768    0.24880   1.00
C3a      0.25759    1.04254    0.28492   1.00
C2       0.25005    0.89488    0.24993   1.00
C2       0.25005    1.10512    0.24994   1.00
C3       0.21495    0.91595    0.25068   1.00
C3       0.24303    1.08363    0.21568   1.00
C3       0.28501    0.91637    0.24895   1.00
C3       0.25735    1.08405    0.28428   1.00
C5       0.17506    0.97772    0.25187   1.00
H1       0.23743    1.02691    0.18871   1.00
H1       0.18784    0.89979    0.25142   1.00
H1       0.23733    1.09901    0.18869   1.00
H1       0.31258    0.90099    0.24833   1.00
H1       0.26282    1.10021    0.31084   1.00
C5       0.26530    1.02228    0.32339   1.00
H1       0.31254    0.97309    0.24824   1.00
H2       0.25920    1.04256    0.34791   1.00
H2       0.24499    0.99731    0.32716   1.00
H2       0.15257    0.95744    0.26341   1.00
H2       0.17603    1.00269    0.27250   1.00
N1       0.30568    1.00857    0.32566   1.00
C6       0.33773    1.03073    0.32692   1.00
C6       0.31749    0.97154    0.32799   1.00
C6       0.37046    1.00759    0.32956   1.00
C6       0.35759    0.96995    0.33025   1.00
H3       0.33752    1.06197    0.32565   1.00
H3       0.29817    0.94700    0.32774   1.00
H3       0.40037    1.01713    0.33087   1.00
H3       0.37545    0.94425    0.33215   1.00
N1       0.16362    0.99143    0.21308   1.00
C6       0.15866    1.02846    0.20211   1.00
C6       0.15508    0.96927    0.18216   1.00
C6       0.14730    1.03005    0.16359   1.00
C6       0.14503    0.99241    0.15090   1.00
H3       0.16331    1.05300    0.22086   1.00
H3       0.15636    0.93803    0.18207   1.00
H3       0.14136    1.05575    0.14663   1.00
H3       0.13691    0.98287    0.12208   1.00
C4       0.02085    0.74988    0.25015   1.00
C4       -0.02085   0.75012    0.24985   1.00
C3a      0.04254    0.75058    0.28573   1.00
C3       -0.04232   0.71570    0.25682   1.00
C3       0.04232    0.74880    0.21505   1.00
C3a      -0.04254   0.78492    0.24241   1.00
C2       0.10512    0.74993    0.24995   1.00
C2       -0.10512   0.74994    0.24995   1.00
C3       0.08405    0.75068    0.28505   1.00
C3       -0.08363   0.71568    0.25697   1.00
C3       0.08363    0.74895    0.21499   1.00
C3       -0.08405   0.78428    0.24265   1.00
C5       0.02228    0.75187    0.32494   1.00
H1       -0.02691   0.68871    0.26257   1.00
H1       0.10021    0.75142    0.31216   1.00
H1       -0.09901   0.68869    0.26267   1.00
H1       0.09901    0.74833    0.18742   1.00
H1       -0.10021   0.81084    0.23718   1.00
C5       -0.02228   0.82339    0.23470   1.00
H1       0.02691    0.74824    0.18746   1.00
H2       -0.04256   0.84791    0.24080   1.00
H2       0.00269    0.82716    0.25501   1.00
H2       0.04256    0.76341    0.34743   1.00
H2       -0.00269   0.77250    0.32397   1.00
N1       -0.00857   0.82566    0.19432   1.00
C6       -0.03073   0.82692    0.16227   1.00
C6       0.02846    0.82799    0.18251   1.00
C6       -0.00759   0.82956    0.12954   1.00
C6       0.03005    0.83025    0.14241   1.00
H3       -0.06197   0.82565    0.16248   1.00
H3       0.05300    0.82774    0.20183   1.00
H3       -0.01713   0.83087    0.09963   1.00
H3       0.05575    0.83215    0.12455   1.00
N1       0.00857    0.71308    0.33638   1.00
C6       -0.02846   0.70211    0.34134   1.00
C6       0.03073    0.68216    0.34492   1.00
C6       -0.03005   0.66359    0.35270   1.00
C6       0.00759    0.65090    0.35497   1.00
H3       -0.05300   0.72086    0.33669   1.00
H3       0.06197    0.68207    0.34364   1.00
H3       -0.05575   0.64663    0.35864   1.00
H3       0.01713    0.62208    0.36309   1.00
C4       0.47915    0.74988    0.24985   1.00
C4       0.52085    0.75012    0.25015   1.00
C3a      0.45746    0.75058    0.21427   1.00
C3       0.54232    0.71570    0.24318   1.00
C3       0.45768    0.74880    0.28495   1.00
C3a      0.54254    0.78492    0.25759   1.00
C2       0.39488    0.74993    0.25005   1.00
C2       0.60512    0.74994    0.25005   1.00
C3       0.41595    0.75068    0.21495   1.00
C3       0.58363    0.71568    0.24303   1.00
C3       0.41637    0.74895    0.28501   1.00
C3       0.58405    0.78428    0.25735   1.00
C5       0.47772    0.75187    0.17506   1.00
H1       0.52691    0.68871    0.23743   1.00
H1       0.39979    0.75142    0.18784   1.00
H1       0.59901    0.68869    0.23733   1.00
H1       0.40099    0.74833    0.31258   1.00
H1       0.60021    0.81084    0.26282   1.00
C5       0.52228    0.82339    0.26530   1.00
H1       0.47309    0.74824    0.31254   1.00
H2       0.54256    0.84791    0.25920   1.00
H2       0.49731    0.82716    0.24499   1.00
H2       0.45744    0.76341    0.15257   1.00
H2       0.50269    0.77250    0.17603   1.00
N1       0.50857    0.82566    0.30568   1.00
C6       0.53073    0.82692    0.33773   1.00
C6       0.47154    0.82799    0.31749   1.00
C6       0.50759    0.82956    0.37046   1.00
C6       0.46995    0.83025    0.35759   1.00
H3       0.56197    0.82565    0.33752   1.00
H3       0.44700    0.82774    0.29817   1.00
H3       0.51713    0.83087    0.40037   1.00
H3       0.44425    0.83215    0.37545   1.00
N1       0.49143    0.71308    0.16362   1.00
C6       0.52846    0.70211    0.15866   1.00
C6       0.46927    0.68216    0.15508   1.00
C6       0.53005    0.66359    0.14730   1.00
C6       0.49241    0.65090    0.14503   1.00
H3       0.55300    0.72086    0.16331   1.00
H3       0.43803    0.68207    0.15636   1.00
H3       0.55575    0.64663    0.14136   1.00
H3       0.48287    0.62208    0.13691   1.00
C4       0.25015    0.52085    0.24988   1.00
C4       0.24985    0.47915    0.25012   1.00
C3a      0.28573    0.54254    0.25058   1.00
C3       0.25682    0.45768    0.21570   1.00
C3       0.21505    0.54232    0.24880   1.00
C3a      0.24241    0.45746    0.28492   1.00
C2       0.24995    0.60512    0.24993   1.00
C2       0.24995    0.39488    0.24994   1.00
C3       0.28505    0.58405    0.25068   1.00
C3       0.25697    0.41637    0.21568   1.00
C3       0.21499    0.58363    0.24895   1.00
C3       0.24265    0.41595    0.28428   1.00
C5       0.32494    0.52228    0.25187   1.00
H1       0.26257    0.47309    0.18871   1.00
H1       0.31216    0.60021    0.25142   1.00
H1       0.26267    0.40099    0.18869   1.00
H1       0.18742    0.59901    0.24833   1.00
H1       0.23718    0.39979    0.31084   1.00
C5       0.23470    0.47772    0.32339   1.00
H1       0.18746    0.52691    0.24824   1.00
H2       0.24080    0.45744    0.34791   1.00
H2       0.25501    0.50269    0.32716   1.00
H2       0.34743    0.54256    0.26341   1.00
H2       0.32397    0.49731    0.27250   1.00
N1       0.19432    0.49143    0.32566   1.00
C6       0.16227    0.46927    0.32692   1.00
C6       0.18251    0.52846    0.32799   1.00
C6       0.12954    0.49241    0.32956   1.00
C6       0.14241    0.53005    0.33025   1.00
H3       0.16248    0.43803    0.32565   1.00
H3       0.20183    0.55300    0.32774   1.00
H3       0.09963    0.48287    0.33087   1.00
H3       0.12455    0.55575    0.33215   1.00
N1       0.33638    0.50857    0.21308   1.00
C6       0.34134    0.47154    0.20211   1.00
C6       0.34492    0.53073    0.18216   1.00
C6       0.35270    0.46995    0.16359   1.00
C6       0.35497    0.50759    0.15090   1.00
H3       0.33669    0.44700    0.22086   1.00
H3       0.34364    0.56197    0.18207   1.00
H3       0.35864    0.44425    0.14663   1.00
H3       0.36309    0.51713    0.12208   1.00
C4       0.24988    0.75015    0.02085   1.00
C4       0.25012    0.74985    -0.02085   1.00
C3a      0.25058    0.78573    0.04254   1.00
C3       0.21570    0.75682    -0.04232   1.00
C3       0.24880    0.71505    0.04232   1.00
C3a      0.28492    0.74241    -0.04254   1.00
C2       0.24993    0.74995    0.10512   1.00
C2       0.24994    0.74995    -0.10512   1.00
C3       0.25068    0.78505    0.08405   1.00
C3       0.21568    0.75697    -0.08363   1.00
C3       0.24895    0.71499    0.08363   1.00
C3       0.28428    0.74265    -0.08405   1.00
C5       0.25187    0.82494    0.02228   1.00
H1       0.18871    0.76257    -0.02691   1.00
H1       0.25142    0.81216    0.10021   1.00
H1       0.18869    0.76267    -0.09901   1.00
H1       0.24833    0.68742    0.09901   1.00
H1       0.31084    0.73718    -0.10021   1.00
C5       0.32339    0.73470    -0.02228   1.00
H1       0.24824    0.68746    0.02691   1.00
H2       0.34791    0.74080    -0.04256   1.00
H2       0.32716    0.75501    0.00269   1.00
H2       0.26341    0.84743    0.04256   1.00
H2       0.27250    0.82397    -0.00269   1.00
N1       0.32566    0.69432    -0.00857   1.00
C6       0.32692    0.66227    -0.03073   1.00
C6       0.32799    0.68251    0.02846   1.00
C6       0.32956    0.62954    -0.00759   1.00
C6       0.33025    0.64241    0.03005   1.00
H3       0.32565    0.66248    -0.06197   1.00
H3       0.32774    0.70183    0.05300   1.00
H3       0.33087    0.59963    -0.01713   1.00
H3       0.33215    0.62455    0.05575   1.00
N1       0.21308    0.83638    0.00857   1.00
C6       0.20211    0.84134    -0.02846   1.00
C6       0.18216    0.84492    0.03073   1.00
C6       0.16359    0.85270    -0.03005   1.00
C6       0.15090    0.85497    0.00759   1.00
H3       0.22086    0.83669    -0.05300   1.00
H3       0.18207    0.84364    0.06197   1.00
H3       0.14663    0.85864    -0.05575   1.00
H3       0.12208    0.86309    0.01713   1.00
C4       0.74988    0.24985    0.47915   1.00
C4       0.75012    0.25015    0.52085   1.00
C3a      0.75058    0.21427    0.45746   1.00
C3       0.71570    0.24318    0.54232   1.00
C3       0.74880    0.28495    0.45768   1.00
C3a      0.78492    0.25759    0.54254   1.00
C2       0.74993    0.25005    0.39488   1.00
C2       0.74994    0.25005    0.60512   1.00
C3       0.75068    0.21495    0.41595   1.00
C3       0.71568    0.24303    0.58363   1.00
C3       0.74895    0.28501    0.41637   1.00
C3       0.78428    0.25735    0.58405   1.00
C5       0.75187    0.17506    0.47772   1.00
H1       0.68871    0.23743    0.52691   1.00
H1       0.75142    0.18784    0.39979   1.00
H1       0.68869    0.23733    0.59901   1.00
H1       0.74833    0.31258    0.40099   1.00
H1       0.81084    0.26282    0.60021   1.00
C5       0.82339    0.26530    0.52228   1.00
H1       0.74824    0.31254    0.47309   1.00
H2       0.84791    0.25920    0.54256   1.00
H2       0.82716    0.24499    0.49731   1.00
H2       0.76341    0.15257    0.45744   1.00
H2       0.77250    0.17603    0.50269   1.00
N1       0.82566    0.30568    0.50857   1.00
C6       0.82692    0.33773    0.53073   1.00
C6       0.82799    0.31749    0.47154   1.00
C6       0.82956    0.37046    0.50759   1.00
C6       0.83025    0.35759    0.46995   1.00
H3       0.82565    0.33752    0.56197   1.00
H3       0.82774    0.29817    0.44700   1.00
H3       0.83087    0.40037    0.51713   1.00
H3       0.83215    0.37545    0.44425   1.00
N1       0.71308    0.16362    0.49143   1.00
C6       0.70211    0.15866    0.52846   1.00
C6       0.68216    0.15508    0.46927   1.00
C6       0.66359    0.14730    0.53005   1.00
C6       0.65090    0.14503    0.49241   1.00
H3       0.72086    0.16331    0.55300   1.00
H3       0.68207    0.15636    0.43803   1.00
H3       0.64663    0.14136    0.55575   1.00
H3       0.62208    0.13691    0.48287   1.00
C4       0.74985    0.47915    0.24988   1.00
C4       0.75015    0.52085    0.25012   1.00
C3a      0.71427    0.45746    0.25058   1.00
C3       0.74318    0.54232    0.21570   1.00
C3       0.78495    0.45768    0.24880   1.00
C3a      0.75759    0.54254    0.28492   1.00
C2       0.75005    0.39488    0.24993   1.00
C2       0.75005    0.60512    0.24994   1.00
C3       0.71495    0.41595    0.25068   1.00
C3       0.74303    0.58363    0.21568   1.00
C3       0.78501    0.41637    0.24895   1.00
C3       0.75735    0.58405    0.28428   1.00
C5       0.67506    0.47772    0.25187   1.00
H1       0.73743    0.52691    0.18871   1.00
H1       0.68784    0.39979    0.25142   1.00
H1       0.73733    0.59901    0.18869   1.00
H1       0.81258    0.40099    0.24833   1.00
H1       0.76282    0.60021    0.31084   1.00
C5       0.76530    0.52228    0.32339   1.00
H1       0.81254    0.47309    0.24824   1.00
H2       0.75920    0.54256    0.34791   1.00
H2       0.74499    0.49731    0.32716   1.00
H2       0.65257    0.45744    0.26341   1.00
H2       0.67603    0.50269    0.27250   1.00
N1       0.80568    0.50857    0.32566   1.00
C6       0.83773    0.53073    0.32692   1.00
C6       0.81749    0.47154    0.32799   1.00
C6       0.87046    0.50759    0.32956   1.00
C6       0.85759    0.46995    0.33025   1.00
H3       0.83752    0.56197    0.32565   1.00
H3       0.79817    0.44700    0.32774   1.00
H3       0.90037    0.51713    0.33087   1.00
H3       0.87545    0.44425    0.33215   1.00
N1       0.66362    0.49143    0.21308   1.00
C6       0.65866    0.52846    0.20211   1.00
C6       0.65508    0.46927    0.18216   1.00
C6       0.64730    0.53005    0.16359   1.00
C6       0.64503    0.49241    0.15090   1.00
H3       0.66331    0.55300    0.22086   1.00
H3       0.65636    0.43803    0.18207   1.00
H3       0.64136    0.55575    0.14663   1.00
H3       0.63691    0.48287    0.12208   1.00
C4       0.52085    0.24988    0.25015   1.00
C4       0.47915    0.25012    0.24985   1.00
C3a      0.54254    0.25058    0.28573   1.00
C3       0.45768    0.21570    0.25682   1.00
C3       0.54232    0.24880    0.21505   1.00
C3a      0.45746    0.28492    0.24241   1.00
C2       0.60512    0.24993    0.24995   1.00
C2       0.39488    0.24994    0.24995   1.00
C3       0.58405    0.25068    0.28505   1.00
C3       0.41637    0.21568    0.25697   1.00
C3       0.58363    0.24895    0.21499   1.00
C3       0.41595    0.28428    0.24265   1.00
C5       0.52228    0.25187    0.32494   1.00
H1       0.47309    0.18871    0.26257   1.00
H1       0.60021    0.25142    0.31216   1.00
H1       0.40099    0.18869    0.26267   1.00
H1       0.59901    0.24833    0.18742   1.00
H1       0.39979    0.31084    0.23718   1.00
C5       0.47772    0.32339    0.23470   1.00
H1       0.52691    0.24824    0.18746   1.00
H2       0.45744    0.34791    0.24080   1.00
H2       0.50269    0.32716    0.25501   1.00
H2       0.54256    0.26341    0.34743   1.00
H2       0.49731    0.27250    0.32397   1.00
N1       0.49143    0.32566    0.19432   1.00
C6       0.46927    0.32692    0.16227   1.00
C6       0.52846    0.32799    0.18251   1.00
C6       0.49241    0.32956    0.12954   1.00
C6       0.53005    0.33025    0.14241   1.00
H3       0.43803    0.32565    0.16248   1.00
H3       0.55300    0.32774    0.20183   1.00
H3       0.48287    0.33087    0.09963   1.00
H3       0.55575    0.33215    0.12455   1.00
N1       0.50857    0.21308    0.33638   1.00
C6       0.47154    0.20211    0.34134   1.00
C6       0.53073    0.18216    0.34492   1.00
C6       0.46995    0.16359    0.35270   1.00
C6       0.50759    0.15090    0.35497   1.00
H3       0.44700    0.22086    0.33669   1.00
H3       0.56197    0.18207    0.34364   1.00
H3       0.44425    0.14663    0.35864   1.00
H3       0.51713    0.12208    0.36309   1.00
C4       0.97915    0.24988    0.24985   1.00
C4       1.02085    0.25012    0.25015   1.00
C3a      0.95746    0.25058    0.21427   1.00
C3       1.04232    0.21570    0.24318   1.00
C3       0.95768    0.24880    0.28495   1.00
C3a      1.04254    0.28492    0.25759   1.00
C2       0.89488    0.24993    0.25005   1.00
C2       1.10512    0.24994    0.25005   1.00
C3       0.91595    0.25068    0.21495   1.00
C3       1.08363    0.21568    0.24303   1.00
C3       0.91637    0.24895    0.28501   1.00
C3       1.08405    0.28428    0.25735   1.00
C5       0.97772    0.25187    0.17506   1.00
H1       1.02691    0.18871    0.23743   1.00
H1       0.89979    0.25142    0.18784   1.00
H1       1.09901    0.18869    0.23733   1.00
H1       0.90099    0.24833    0.31258   1.00
H1       1.10021    0.31084    0.26282   1.00
C5       1.02228    0.32339    0.26530   1.00
H1       0.97309    0.24824    0.31254   1.00
H2       1.04256    0.34791    0.25920   1.00
H2       0.99731    0.32716    0.24499   1.00
H2       0.95744    0.26341    0.15257   1.00
H2       1.00269    0.27250    0.17603   1.00
N1       1.00857    0.32566    0.30568   1.00
C6       1.03073    0.32692    0.33773   1.00
C6       0.97154    0.32799    0.31749   1.00
C6       1.00759    0.32956    0.37046   1.00
C6       0.96995    0.33025    0.35759   1.00
H3       1.06197    0.32565    0.33752   1.00
H3       0.94700    0.32774    0.29817   1.00
H3       1.01713    0.33087    0.40037   1.00
H3       0.94425    0.33215    0.37545   1.00
N1       0.99143    0.21308    0.16362   1.00
C6       1.02846    0.20211    0.15866   1.00
C6       0.96927    0.18216    0.15508   1.00
C6       1.03005    0.16359    0.14730   1.00
C6       0.99241    0.15090    0.14503   1.00
H3       1.05300    0.22086    0.16331   1.00
H3       0.93803    0.18207    0.15636   1.00
H3       1.05575    0.14663    0.14136   1.00
H3       0.98287    0.12208    0.13691   1.00
C4       0.75015    0.02085    0.24988   1.00
C4       0.74985    -0.02085   0.25012   1.00
C3a      0.78573    0.04254    0.25058   1.00
C3       0.75682    -0.04232   0.21570   1.00
C3       0.71505    0.04232    0.24880   1.00
C3a      0.74241    -0.04254   0.28492   1.00
C2       0.74995    0.10512    0.24993   1.00
C2       0.74995    -0.10512   0.24994   1.00
C3       0.78505    0.08405    0.25068   1.00
C3       0.75697    -0.08363   0.21568   1.00
C3       0.71499    0.08363    0.24895   1.00
C3       0.74265    -0.08405   0.28428   1.00
C5       0.82494    0.02228    0.25187   1.00
H1       0.76257    -0.02691   0.18871   1.00
H1       0.81216    0.10021    0.25142   1.00
H1       0.76267    -0.09901   0.18869   1.00
H1       0.68742    0.09901    0.24833   1.00
H1       0.73718    -0.10021   0.31084   1.00
C5       0.73470    -0.02228   0.32339   1.00
H1       0.68746    0.02691    0.24824   1.00
H2       0.74080    -0.04256   0.34791   1.00
H2       0.75501    0.00269    0.32716   1.00
H2       0.84743    0.04256    0.26341   1.00
H2       0.82397    -0.00269   0.27250   1.00
N1       0.69432    -0.00857   0.32566   1.00
C6       0.66227    -0.03073   0.32692   1.00
C6       0.68251    0.02846    0.32799   1.00
C6       0.62954    -0.00759   0.32956   1.00
C6       0.64241    0.03005    0.33025   1.00
H3       0.66248    -0.06197   0.32565   1.00
H3       0.70183    0.05300    0.32774   1.00
H3       0.59963    -0.01713   0.33087   1.00
H3       0.62455    0.05575    0.33215   1.00
N1       0.83638    0.00857    0.21308   1.00
C6       0.84134    -0.02846   0.20211   1.00
C6       0.84492    0.03073    0.18216   1.00
C6       0.85270    -0.03005   0.16359   1.00
C6       0.85497    0.00759    0.15090   1.00
H3       0.83669    -0.05300   0.22086   1.00
H3       0.84364    0.06197    0.18207   1.00
H3       0.85864    -0.05575   0.14663   1.00
H3       0.86309    0.01713    0.12208   1.00
C4       0.74988    0.25015    0.02085   1.00
C4       0.75012    0.24985    -0.02085   1.00
C3a      0.75058    0.28573    0.04254   1.00
C3       0.71570    0.25682    -0.04232   1.00
C3       0.74880    0.21505    0.04232   1.00
C3a      0.78492    0.24241    -0.04254   1.00
C2       0.74993    0.24995    0.10512   1.00
C2       0.74994    0.24995    -0.10512   1.00
C3       0.75068    0.28505    0.08405   1.00
C3       0.71568    0.25697    -0.08363   1.00
C3       0.74895    0.21499    0.08363   1.00
C3       0.78428    0.24265    -0.08405   1.00
C5       0.75187    0.32494    0.02228   1.00
H1       0.68871    0.26257    -0.02691   1.00
H1       0.75142    0.31216    0.10021   1.00
H1       0.68869    0.26267    -0.09901   1.00
H1       0.74833    0.18742    0.09901   1.00
H1       0.81084    0.23718    -0.10021   1.00
C5       0.82339    0.23470    -0.02228   1.00
H1       0.74824    0.18746    0.02691   1.00
H2       0.84791    0.24080    -0.04256   1.00
H2       0.82716    0.25501    0.00269   1.00
H2       0.76341    0.34743    0.04256   1.00
H2       0.77250    0.32397    -0.00269   1.00
N1       0.82566    0.19432    -0.00857   1.00
C6       0.82692    0.16227    -0.03073   1.00
C6       0.82799    0.18251    0.02846   1.00
C6       0.82956    0.12954    -0.00759   1.00
C6       0.83025    0.14241    0.03005   1.00
H3       0.82565    0.16248    -0.06197   1.00
H3       0.82774    0.20183    0.05300   1.00
H3       0.83087    0.09963    -0.01713   1.00
H3       0.83215    0.12455    0.05575   1.00
N1       0.71308    0.33638    0.00857   1.00
C6       0.70211    0.34134    -0.02846   1.00
C6       0.68216    0.34492    0.03073   1.00
C6       0.66359    0.35270    -0.03005   1.00
C6       0.65090    0.35497    0.00759   1.00
H3       0.72086    0.33669    -0.05300   1.00
H3       0.68207    0.34364    0.06197   1.00
H3       0.64663    0.35864    -0.05575   1.00
H3       0.62208    0.36309    0.01713   1.00
C4       0.91488    0.91485    1.14415   1.00
C4       0.91512    0.91515    1.18585   1.00
C3a      0.91558    0.87927    1.12246   1.00
C3       0.88070    0.90818    1.20732   1.00
C3       0.91380    0.94995    1.12268   1.00
C3a      0.94992    0.92259    1.20754   1.00
C2       0.91493    0.91505    1.05988   1.00
C2       0.91494    0.91505    1.27012   1.00
C3       0.91568    0.87995    1.08095   1.00
C3       0.88068    0.90803    1.24863   1.00
C3       0.91395    0.95001    1.08137   1.00
C3       0.94928    0.92235    1.24905   1.00
C5       0.91687    0.84006    1.14272   1.00
H1       0.85371    0.90243    1.19191   1.00
H1       0.91642    0.85284    1.06479   1.00
H1       0.85369    0.90233    1.26401   1.00
H1       0.91333    0.97758    1.06599   1.00
H1       0.97584    0.92782    1.26521   1.00
C5       0.98839    0.93030    1.18728   1.00
H1       0.91324    0.97754    1.13809   1.00
H2       1.01291    0.92420    1.20756   1.00
H2       0.99216    0.90999    1.16231   1.00
H2       0.92841    0.81757    1.12244   1.00
H2       0.93750    0.84103    1.16769   1.00
N1       0.99066    0.97068    1.17357   1.00
C6       0.99192    1.00273    1.19573   1.00
C6       0.99299    0.98249    1.13654   1.00
C6       0.99456    1.03546    1.17259   1.00
C6       0.99525    1.02259    1.13495   1.00
H3       0.99065    1.00252    1.22697   1.00
H3       0.99274    0.96317    1.11200   1.00
H3       0.99587    1.06537    1.18213   1.00
H3       0.99715    1.04045    1.10925   1.00
N1       0.87808    0.82862    1.15643   1.00
C6       0.86711    0.82366    1.19346   1.00
C6       0.84716    0.82008    1.13427   1.00
C6       0.82859    0.81230    1.19505   1.00
C6       0.81590    0.81003    1.15741   1.00
H3       0.88586    0.82831    1.21800   1.00
H3       0.84707    0.82136    1.10303   1.00
H3       0.81163    0.80636    1.22075   1.00
H3       0.78708    0.80191    1.14787   1.00
C4       0.91485    1.14415    0.91488   1.00
C4       0.91515    1.18585    0.91512   1.00
C3a      0.87927    1.12246    0.91558   1.00
C3       0.90818    1.20732    0.88070   1.00
C3       0.94995    1.12268    0.91380   1.00
C3a      0.92259    1.20754    0.94992   1.00
C2       0.91505    1.05988    0.91493   1.00
C2       0.91505    1.27012    0.91494   1.00
C3       0.87995    1.08095    0.91568   1.00
C3       0.90803    1.24863    0.88068   1.00
C3       0.95001    1.08137    0.91395   1.00
C3       0.92235    1.24905    0.94928   1.00
C5       0.84006    1.14272    0.91687   1.00
H1       0.90243    1.19191    0.85371   1.00
H1       0.85284    1.06479    0.91642   1.00
H1       0.90233    1.26401    0.85369   1.00
H1       0.97758    1.06599    0.91333   1.00
H1       0.92782    1.26521    0.97584   1.00
C5       0.93030    1.18728    0.98839   1.00
H1       0.97754    1.13809    0.91324   1.00
H2       0.92420    1.20756    1.01291   1.00
H2       0.90999    1.16231    0.99216   1.00
H2       0.81757    1.12244    0.92841   1.00
H2       0.84103    1.16769    0.93750   1.00
N1       0.97068    1.17357    0.99066   1.00
C6       1.00273    1.19573    0.99192   1.00
C6       0.98249    1.13654    0.99299   1.00
C6       1.03546    1.17259    0.99456   1.00
C6       1.02259    1.13495    0.99525   1.00
H3       1.00252    1.22697    0.99065   1.00
H3       0.96317    1.11200    0.99274   1.00
H3       1.06537    1.18213    0.99587   1.00
H3       1.04045    1.10925    0.99715   1.00
N1       0.82862    1.15643    0.87808   1.00
C6       0.82366    1.19346    0.86711   1.00
C6       0.82008    1.13427    0.84716   1.00
C6       0.81230    1.19505    0.82859   1.00
C6       0.81003    1.15741    0.81590   1.00
H3       0.82831    1.21800    0.88586   1.00
H3       0.82136    1.10303    0.84707   1.00
H3       0.80636    1.22075    0.81163   1.00
H3       0.80191    1.14787    0.78708   1.00
C4       0.68585    0.91488    0.91515   1.00
C4       0.64415    0.91512    0.91485   1.00
C3a      0.70754    0.91558    0.95073   1.00
C3       0.62268    0.88070    0.92182   1.00
C3       0.70732    0.91380    0.88005   1.00
C3a      0.62246    0.94992    0.90741   1.00
C2       0.77012    0.91493    0.91495   1.00
C2       0.55988    0.91494    0.91495   1.00
C3       0.74905    0.91568    0.95005   1.00
C3       0.58137    0.88068    0.92197   1.00
C3       0.74863    0.91395    0.87999   1.00
C3       0.58095    0.94928    0.90765   1.00
C5       0.68728    0.91687    0.98994   1.00
H1       0.63809    0.85371    0.92757   1.00
H1       0.76521    0.91642    0.97716   1.00
H1       0.56599    0.85369    0.92767   1.00
H1       0.76401    0.91333    0.85242   1.00
H1       0.56479    0.97584    0.90218   1.00
C5       0.64272    0.98839    0.89970   1.00
H1       0.69191    0.91324    0.85246   1.00
H2       0.62244    1.01291    0.90580   1.00
H2       0.66769    0.99216    0.92001   1.00
H2       0.70756    0.92841    1.01243   1.00
H2       0.66231    0.93750    0.98897   1.00
N1       0.65643    0.99066    0.85932   1.00
C6       0.63427    0.99192    0.82727   1.00
C6       0.69346    0.99299    0.84751   1.00
C6       0.65741    0.99456    0.79454   1.00
C6       0.69505    0.99525    0.80741   1.00
H3       0.60303    0.99065    0.82748   1.00
H3       0.71800    0.99274    0.86683   1.00
H3       0.64787    0.99587    0.76463   1.00
H3       0.72075    0.99715    0.78955   1.00
N1       0.67357    0.87808    1.00138   1.00
C6       0.63654    0.86711    1.00634   1.00
C6       0.69573    0.84716    1.00992   1.00
C6       0.63495    0.82859    1.01770   1.00
C6       0.67259    0.81590    1.01997   1.00
H3       0.61200    0.88586    1.00169   1.00
H3       0.72697    0.84707    1.00864   1.00
H3       0.60925    0.81163    1.02364   1.00
H3       0.68213    0.78708    1.02809   1.00
C4       1.14415    0.91488    0.91485   1.00
C4       1.18585    0.91512    0.91515   1.00
C3a      1.12246    0.91558    0.87927   1.00
C3       1.20732    0.88070    0.90818   1.00
C3       1.12268    0.91380    0.94995   1.00
C3a      1.20754    0.94992    0.92259   1.00
C2       1.05988    0.91493    0.91505   1.00
C2       1.27012    0.91494    0.91505   1.00
C3       1.08095    0.91568    0.87995   1.00
C3       1.24863    0.88068    0.90803   1.00
C3       1.08137    0.91395    0.95001   1.00
C3       1.24905    0.94928    0.92235   1.00
C5       1.14272    0.91687    0.84006   1.00
H1       1.19191    0.85371    0.90243   1.00
H1       1.06479    0.91642    0.85284   1.00
H1       1.26401    0.85369    0.90233   1.00
H1       1.06599    0.91333    0.97758   1.00
H1       1.26521    0.97584    0.92782   1.00
C5       1.18728    0.98839    0.93030   1.00
H1       1.13809    0.91324    0.97754   1.00
H2       1.20756    1.01291    0.92420   1.00
H2       1.16231    0.99216    0.90999   1.00
H2       1.12244    0.92841    0.81757   1.00
H2       1.16769    0.93750    0.84103   1.00
N1       1.17357    0.99066    0.97068   1.00
C6       1.19573    0.99192    1.00273   1.00
C6       1.13654    0.99299    0.98249   1.00
C6       1.17259    0.99456    1.03546   1.00
C6       1.13495    0.99525    1.02259   1.00
H3       1.22697    0.99065    1.00252   1.00
H3       1.11200    0.99274    0.96317   1.00
H3       1.18213    0.99587    1.06537   1.00
H3       1.10925    0.99715    1.04045   1.00
N1       1.15643    0.87808    0.82862   1.00
C6       1.19346    0.86711    0.82366   1.00
C6       1.13427    0.84716    0.82008   1.00
C6       1.19505    0.82859    0.81230   1.00
C6       1.15741    0.81590    0.81003   1.00
H3       1.21800    0.88586    0.82831   1.00
H3       1.10303    0.84707    0.82136   1.00
H3       1.22075    0.81163    0.80636   1.00
H3       1.14787    0.78708    0.80191   1.00
C4       0.91515    0.68585    0.91488   1.00
C4       0.91485    0.64415    0.91512   1.00
C3a      0.95073    0.70754    0.91558   1.00
C3       0.92182    0.62268    0.88070   1.00
C3       0.88005    0.70732    0.91380   1.00
C3a      0.90741    0.62246    0.94992   1.00
C2       0.91495    0.77012    0.91493   1.00
C2       0.91495    0.55988    0.91494   1.00
C3       0.95005    0.74905    0.91568   1.00
C3       0.92197    0.58137    0.88068   1.00
C3       0.87999    0.74863    0.91395   1.00
C3       0.90765    0.58095    0.94928   1.00
C5       0.98994    0.68728    0.91687   1.00
H1       0.92757    0.63809    0.85371   1.00
H1       0.97716    0.76521    0.91642   1.00
H1       0.92767    0.56599    0.85369   1.00
H1       0.85242    0.76401    0.91333   1.00
H1       0.90218    0.56479    0.97584   1.00
C5       0.89970    0.64272    0.98839   1.00
H1       0.85246    0.69191    0.91324   1.00
H2       0.90580    0.62244    1.01291   1.00
H2       0.92001    0.66769    0.99216   1.00
H2       1.01243    0.70756    0.92841   1.00
H2       0.98897    0.66231    0.93750   1.00
N1       0.85932    0.65643    0.99066   1.00
C6       0.82727    0.63427    0.99192   1.00
C6       0.84751    0.69346    0.99299   1.00
C6       0.79454    0.65741    0.99456   1.00
C6       0.80741    0.69505    0.99525   1.00
H3       0.82748    0.60303    0.99065   1.00
H3       0.86683    0.71800    0.99274   1.00
H3       0.76463    0.64787    0.99587   1.00
H3       0.78955    0.72075    0.99715   1.00
N1       1.00138    0.67357    0.87808   1.00
C6       1.00634    0.63654    0.86711   1.00
C6       1.00992    0.69573    0.84716   1.00
C6       1.01770    0.63495    0.82859   1.00
C6       1.01997    0.67259    0.81590   1.00
H3       1.00169    0.61200    0.88586   1.00
H3       1.00864    0.72697    0.84707   1.00
H3       1.02364    0.60925    0.81163   1.00
H3       1.02809    0.68213    0.78708   1.00
C4       0.91488    0.91515    0.68585   1.00
C4       0.91512    0.91485    0.64415   1.00
C3a      0.91558    0.95073    0.70754   1.00
C3       0.88070    0.92182    0.62268   1.00
C3       0.91380    0.88005    0.70732   1.00
C3a      0.94992    0.90741    0.62246   1.00
C2       0.91493    0.91495    0.77012   1.00
C2       0.91494    0.91495    0.55988   1.00
C3       0.91568    0.95005    0.74905   1.00
C3       0.88068    0.92197    0.58137   1.00
C3       0.91395    0.87999    0.74863   1.00
C3       0.94928    0.90765    0.58095   1.00
C5       0.91687    0.98994    0.68728   1.00
H1       0.85371    0.92757    0.63809   1.00
H1       0.91642    0.97716    0.76521   1.00
H1       0.85369    0.92767    0.56599   1.00
H1       0.91333    0.85242    0.76401   1.00
H1       0.97584    0.90218    0.56479   1.00
C5       0.98839    0.89970    0.64272   1.00
H1       0.91324    0.85246    0.69191   1.00
H2       1.01291    0.90580    0.62244   1.00
H2       0.99216    0.92001    0.66769   1.00
H2       0.92841    1.01243    0.70756   1.00
H2       0.93750    0.98897    0.66231   1.00
N1       0.99066    0.85932    0.65643   1.00
C6       0.99192    0.82727    0.63427   1.00
C6       0.99299    0.84751    0.69346   1.00
C6       0.99456    0.79454    0.65741   1.00
C6       0.99525    0.80741    0.69505   1.00
H3       0.99065    0.82748    0.60303   1.00
H3       0.99274    0.86683    0.71800   1.00
H3       0.99587    0.76463    0.64787   1.00
H3       0.99715    0.78955    0.72075   1.00
N1       0.87808    1.00138    0.67357   1.00
C6       0.86711    1.00634    0.63654   1.00
C6       0.84716    1.00992    0.69573   1.00
C6       0.82859    1.01770    0.63495   1.00
C6       0.81590    1.01997    0.67259   1.00
H3       0.88586    1.00169    0.61200   1.00
H3       0.84707    1.00864    0.72697   1.00
H3       0.81163    1.02364    0.60925   1.00
H3       0.78708    1.02809    0.68213   1.00
C4       0.41488    0.41485    1.14415   1.00
C4       0.41512    0.41515    1.18585   1.00
C3a      0.41558    0.37927    1.12246   1.00
C3       0.38070    0.40818    1.20732   1.00
C3       0.41380    0.44995    1.12268   1.00
C3a      0.44992    0.42259    1.20754   1.00
C2       0.41493    0.41505    1.05988   1.00
C2       0.41494    0.41505    1.27012   1.00
C3       0.41568    0.37995    1.08095   1.00
C3       0.38068    0.40803    1.24863   1.00
C3       0.41395    0.45001    1.08137   1.00
C3       0.44928    0.42235    1.24905   1.00
C5       0.41687    0.34006    1.14272   1.00
H1       0.35371    0.40243    1.19191   1.00
H1       0.41642    0.35284    1.06479   1.00
H1       0.35369    0.40233    1.26401   1.00
H1       0.41333    0.47758    1.06599   1.00
H1       0.47584    0.42782    1.26521   1.00
C5       0.48839    0.43030    1.18728   1.00
H1       0.41324    0.47754    1.13809   1.00
H2       0.51291    0.42420    1.20756   1.00
H2       0.49216    0.40999    1.16231   1.00
H2       0.42841    0.31757    1.12244   1.00
H2       0.43750    0.34103    1.16769   1.00
N1       0.49066    0.47068    1.17357   1.00
C6       0.49192    0.50273    1.19573   1.00
C6       0.49299    0.48249    1.13654   1.00
C6       0.49456    0.53546    1.17259   1.00
C6       0.49525    0.52259    1.13495   1.00
H3       0.49065    0.50252    1.22697   1.00
H3       0.49274    0.46317    1.11200   1.00
H3       0.49587    0.56537    1.18213   1.00
H3       0.49715    0.54045    1.10925   1.00
N1       0.37808    0.32862    1.15643   1.00
C6       0.36711    0.32366    1.19346   1.00
C6       0.34716    0.32008    1.13427   1.00
C6       0.32859    0.31230    1.19505   1.00
C6       0.31590    0.31003    1.15741   1.00
H3       0.38586    0.32831    1.21800   1.00
H3       0.34707    0.32136    1.10303   1.00
H3       0.31163    0.30636    1.22075   1.00
H3       0.28708    0.30191    1.14787   1.00
C4       0.41485    0.64415    0.91488   1.00
C4       0.41515    0.68585    0.91512   1.00
C3a      0.37927    0.62246    0.91558   1.00
C3       0.40818    0.70732    0.88070   1.00
C3       0.44995    0.62268    0.91380   1.00
C3a      0.42259    0.70754    0.94992   1.00
C2       0.41505    0.55988    0.91493   1.00
C2       0.41505    0.77012    0.91494   1.00
C3       0.37995    0.58095    0.91568   1.00
C3       0.40803    0.74863    0.88068   1.00
C3       0.45001    0.58137    0.91395   1.00
C3       0.42235    0.74905    0.94928   1.00
C5       0.34006    0.64272    0.91687   1.00
H1       0.40243    0.69191    0.85371   1.00
H1       0.35284    0.56479    0.91642   1.00
H1       0.40233    0.76401    0.85369   1.00
H1       0.47758    0.56599    0.91333   1.00
H1       0.42782    0.76521    0.97584   1.00
C5       0.43030    0.68728    0.98839   1.00
H1       0.47754    0.63809    0.91324   1.00
H2       0.42420    0.70756    1.01291   1.00
H2       0.40999    0.66231    0.99216   1.00
H2       0.31757    0.62244    0.92841   1.00
H2       0.34103    0.66769    0.93750   1.00
N1       0.47068    0.67357    0.99066   1.00
C6       0.50273    0.69573    0.99192   1.00
C6       0.48249    0.63654    0.99299   1.00
C6       0.53546    0.67259    0.99456   1.00
C6       0.52259    0.63495    0.99525   1.00
H3       0.50252    0.72697    0.99065   1.00
H3       0.46317    0.61200    0.99274   1.00
H3       0.56537    0.68213    0.99587   1.00
H3       0.54045    0.60925    0.99715   1.00
N1       0.32862    0.65643    0.87808   1.00
C6       0.32366    0.69346    0.86711   1.00
C6       0.32008    0.63427    0.84716   1.00
C6       0.31230    0.69505    0.82859   1.00
C6       0.31003    0.65741    0.81590   1.00
H3       0.32831    0.71800    0.88586   1.00
H3       0.32136    0.60303    0.84707   1.00
H3       0.30636    0.72075    0.81163   1.00
H3       0.30191    0.64787    0.78708   1.00
C4       0.18585    0.41488    0.91515   1.00
C4       0.14415    0.41512    0.91485   1.00
C3a      0.20754    0.41558    0.95073   1.00
C3       0.12268    0.38070    0.92182   1.00
C3       0.20732    0.41380    0.88005   1.00
C3a      0.12246    0.44992    0.90741   1.00
C2       0.27012    0.41493    0.91495   1.00
C2       0.05988    0.41494    0.91495   1.00
C3       0.24905    0.41568    0.95005   1.00
C3       0.08137    0.38068    0.92197   1.00
C3       0.24863    0.41395    0.87999   1.00
C3       0.08095    0.44928    0.90765   1.00
C5       0.18728    0.41687    0.98994   1.00
H1       0.13809    0.35371    0.92757   1.00
H1       0.26521    0.41642    0.97716   1.00
H1       0.06599    0.35369    0.92767   1.00
H1       0.26401    0.41333    0.85242   1.00
H1       0.06479    0.47584    0.90218   1.00
C5       0.14272    0.48839    0.89970   1.00
H1       0.19191    0.41324    0.85246   1.00
H2       0.12244    0.51291    0.90580   1.00
H2       0.16769    0.49216    0.92001   1.00
H2       0.20756    0.42841    1.01243   1.00
H2       0.16231    0.43750    0.98897   1.00
N1       0.15643    0.49066    0.85932   1.00
C6       0.13427    0.49192    0.82727   1.00
C6       0.19346    0.49299    0.84751   1.00
C6       0.15741    0.49456    0.79454   1.00
C6       0.19505    0.49525    0.80741   1.00
H3       0.10303    0.49065    0.82748   1.00
H3       0.21800    0.49274    0.86683   1.00
H3       0.14787    0.49587    0.76463   1.00
H3       0.22075    0.49715    0.78955   1.00
N1       0.17357    0.37808    1.00138   1.00
C6       0.13654    0.36711    1.00634   1.00
C6       0.19573    0.34716    1.00992   1.00
C6       0.13495    0.32859    1.01770   1.00
C6       0.17259    0.31590    1.01997   1.00
H3       0.11200    0.38586    1.00169   1.00
H3       0.22697    0.34707    1.00864   1.00
H3       0.10925    0.31163    1.02364   1.00
H3       0.18213    0.28708    1.02809   1.00
C4       0.64415    0.41488    0.91485   1.00
C4       0.68585    0.41512    0.91515   1.00
C3a      0.62246    0.41558    0.87927   1.00
C3       0.70732    0.38070    0.90818   1.00
C3       0.62268    0.41380    0.94995   1.00
C3a      0.70754    0.44992    0.92259   1.00
C2       0.55988    0.41493    0.91505   1.00
C2       0.77012    0.41494    0.91505   1.00
C3       0.58095    0.41568    0.87995   1.00
C3       0.74863    0.38068    0.90803   1.00
C3       0.58137    0.41395    0.95001   1.00
C3       0.74905    0.44928    0.92235   1.00
C5       0.64272    0.41687    0.84006   1.00
H1       0.69191    0.35371    0.90243   1.00
H1       0.56479    0.41642    0.85284   1.00
H1       0.76401    0.35369    0.90233   1.00
H1       0.56599    0.41333    0.97758   1.00
H1       0.76521    0.47584    0.92782   1.00
C5       0.68728    0.48839    0.93030   1.00
H1       0.63809    0.41324    0.97754   1.00
H2       0.70756    0.51291    0.92420   1.00
H2       0.66231    0.49216    0.90999   1.00
H2       0.62244    0.42841    0.81757   1.00
H2       0.66769    0.43750    0.84103   1.00
N1       0.67357    0.49066    0.97068   1.00
C6       0.69573    0.49192    1.00273   1.00
C6       0.63654    0.49299    0.98249   1.00
C6       0.67259    0.49456    1.03546   1.00
C6       0.63495    0.49525    1.02259   1.00
H3       0.72697    0.49065    1.00252   1.00
H3       0.61200    0.49274    0.96317   1.00
H3       0.68213    0.49587    1.06537   1.00
H3       0.60925    0.49715    1.04045   1.00
N1       0.65643    0.37808    0.82862   1.00
C6       0.69346    0.36711    0.82366   1.00
C6       0.63427    0.34716    0.82008   1.00
C6       0.69505    0.32859    0.81230   1.00
C6       0.65741    0.31590    0.81003   1.00
H3       0.71800    0.38586    0.82831   1.00
H3       0.60303    0.34707    0.82136   1.00
H3       0.72075    0.31163    0.80636   1.00
H3       0.64787    0.28708    0.80191   1.00
C4       0.41515    0.18585    0.91488   1.00
C4       0.41485    0.14415    0.91512   1.00
C3a      0.45073    0.20754    0.91558   1.00
C3       0.42182    0.12268    0.88070   1.00
C3       0.38005    0.20732    0.91380   1.00
C3a      0.40741    0.12246    0.94992   1.00
C2       0.41495    0.27012    0.91493   1.00
C2       0.41495    0.05988    0.91494   1.00
C3       0.45005    0.24905    0.91568   1.00
C3       0.42197    0.08137    0.88068   1.00
C3       0.37999    0.24863    0.91395   1.00
C3       0.40765    0.08095    0.94928   1.00
C5       0.48994    0.18728    0.91687   1.00
H1       0.42757    0.13809    0.85371   1.00
H1       0.47716    0.26521    0.91642   1.00
H1       0.42767    0.06599    0.85369   1.00
H1       0.35242    0.26401    0.91333   1.00
H1       0.40218    0.06479    0.97584   1.00
C5       0.39970    0.14272    0.98839   1.00
H1       0.35246    0.19191    0.91324   1.00
H2       0.40580    0.12244    1.01291   1.00
H2       0.42001    0.16769    0.99216   1.00
H2       0.51243    0.20756    0.92841   1.00
H2       0.48897    0.16231    0.93750   1.00
N1       0.35932    0.15643    0.99066   1.00
C6       0.32727    0.13427    0.99192   1.00
C6       0.34751    0.19346    0.99299   1.00
C6       0.29454    0.15741    0.99456   1.00
C6       0.30741    0.19505    0.99525   1.00
H3       0.32748    0.10303    0.99065   1.00
H3       0.36683    0.21800    0.99274   1.00
H3       0.26463    0.14787    0.99587   1.00
H3       0.28955    0.22075    0.99715   1.00
N1       0.50138    0.17357    0.87808   1.00
C6       0.50634    0.13654    0.86711   1.00
C6       0.50992    0.19573    0.84716   1.00
C6       0.51770    0.13495    0.82859   1.00
C6       0.51997    0.17259    0.81590   1.00
H3       0.50169    0.11200    0.88586   1.00
H3       0.50864    0.22697    0.84707   1.00
H3       0.52364    0.10925    0.81163   1.00
H3       0.52809    0.18213    0.78708   1.00
C4       0.41488    0.41515    0.68585   1.00
C4       0.41512    0.41485    0.64415   1.00
C3a      0.41558    0.45073    0.70754   1.00
C3       0.38070    0.42182    0.62268   1.00
C3       0.41380    0.38005    0.70732   1.00
C3a      0.44992    0.40741    0.62246   1.00
C2       0.41493    0.41495    0.77012   1.00
C2       0.41494    0.41495    0.55988   1.00
C3       0.41568    0.45005    0.74905   1.00
C3       0.38068    0.42197    0.58137   1.00
C3       0.41395    0.37999    0.74863   1.00
C3       0.44928    0.40765    0.58095   1.00
C5       0.41687    0.48994    0.68728   1.00
H1       0.35371    0.42757    0.63809   1.00
H1       0.41642    0.47716    0.76521   1.00
H1       0.35369    0.42767    0.56599   1.00
H1       0.41333    0.35242    0.76401   1.00
H1       0.47584    0.40218    0.56479   1.00
C5       0.48839    0.39970    0.64272   1.00
H1       0.41324    0.35246    0.69191   1.00
H2       0.51291    0.40580    0.62244   1.00
H2       0.49216    0.42001    0.66769   1.00
H2       0.42841    0.51243    0.70756   1.00
H2       0.43750    0.48897    0.66231   1.00
N1       0.49066    0.35932    0.65643   1.00
C6       0.49192    0.32727    0.63427   1.00
C6       0.49299    0.34751    0.69346   1.00
C6       0.49456    0.29454    0.65741   1.00
C6       0.49525    0.30741    0.69505   1.00
H3       0.49065    0.32748    0.60303   1.00
H3       0.49274    0.36683    0.71800   1.00
H3       0.49587    0.26463    0.64787   1.00
H3       0.49715    0.28955    0.72075   1.00
N1       0.37808    0.50138    0.67357   1.00
C6       0.36711    0.50634    0.63654   1.00
C6       0.34716    0.50992    0.69573   1.00
C6       0.32859    0.51770    0.63495   1.00
C6       0.31590    0.51997    0.67259   1.00
H3       0.38586    0.50169    0.61200   1.00
H3       0.34707    0.50864    0.72697   1.00
H3       0.31163    0.52364    0.60925   1.00
H3       0.28708    0.52809    0.68213   1.00
C4       0.41488    0.91485    0.64415   1.00
C4       0.41512    0.91515    0.68585   1.00
C3a      0.41558    0.87927    0.62246   1.00
C3       0.38070    0.90818    0.70732   1.00
C3       0.41380    0.94995    0.62268   1.00
C3a      0.44992    0.92259    0.70754   1.00
C2       0.41493    0.91505    0.55988   1.00
C2       0.41494    0.91505    0.77012   1.00
C3       0.41568    0.87995    0.58095   1.00
C3       0.38068    0.90803    0.74863   1.00
C3       0.41395    0.95001    0.58137   1.00
C3       0.44928    0.92235    0.74905   1.00
C5       0.41687    0.84006    0.64272   1.00
H1       0.35371    0.90243    0.69191   1.00
H1       0.41642    0.85284    0.56479   1.00
H1       0.35369    0.90233    0.76401   1.00
H1       0.41333    0.97758    0.56599   1.00
H1       0.47584    0.92782    0.76521   1.00
C5       0.48839    0.93030    0.68728   1.00
H1       0.41324    0.97754    0.63809   1.00
H2       0.51291    0.92420    0.70756   1.00
H2       0.49216    0.90999    0.66231   1.00
H2       0.42841    0.81757    0.62244   1.00
H2       0.43750    0.84103    0.66769   1.00
N1       0.49066    0.97068    0.67357   1.00
C6       0.49192    1.00273    0.69573   1.00
C6       0.49299    0.98249    0.63654   1.00
C6       0.49456    1.03546    0.67259   1.00
C6       0.49525    1.02259    0.63495   1.00
H3       0.49065    1.00252    0.72697   1.00
H3       0.49274    0.96317    0.61200   1.00
H3       0.49587    1.06537    0.68213   1.00
H3       0.49715    1.04045    0.60925   1.00
N1       0.37808    0.82862    0.65643   1.00
C6       0.36711    0.82366    0.69346   1.00
C6       0.34716    0.82008    0.63427   1.00
C6       0.32859    0.81230    0.69505   1.00
C6       0.31590    0.81003    0.65741   1.00
H3       0.38586    0.82831    0.71800   1.00
H3       0.34707    0.82136    0.60303   1.00
H3       0.31163    0.80636    0.72075   1.00
H3       0.28708    0.80191    0.64787   1.00
C4       0.41485    1.14415    0.41488   1.00
C4       0.41515    1.18585    0.41512   1.00
C3a      0.37927    1.12246    0.41558   1.00
C3       0.40818    1.20732    0.38070   1.00
C3       0.44995    1.12268    0.41380   1.00
C3a      0.42259    1.20754    0.44992   1.00
C2       0.41505    1.05988    0.41493   1.00
C2       0.41505    1.27012    0.41494   1.00
C3       0.37995    1.08095    0.41568   1.00
C3       0.40803    1.24863    0.38068   1.00
C3       0.45001    1.08137    0.41395   1.00
C3       0.42235    1.24905    0.44928   1.00
C5       0.34006    1.14272    0.41687   1.00
H1       0.40243    1.19191    0.35371   1.00
H1       0.35284    1.06479    0.41642   1.00
H1       0.40233    1.26401    0.35369   1.00
H1       0.47758    1.06599    0.41333   1.00
H1       0.42782    1.26521    0.47584   1.00
C5       0.43030    1.18728    0.48839   1.00
H1       0.47754    1.13809    0.41324   1.00
H2       0.42420    1.20756    0.51291   1.00
H2       0.40999    1.16231    0.49216   1.00
H2       0.31757    1.12244    0.42841   1.00
H2       0.34103    1.16769    0.43750   1.00
N1       0.47068    1.17357    0.49066   1.00
C6       0.50273    1.19573    0.49192   1.00
C6       0.48249    1.13654    0.49299   1.00
C6       0.53546    1.17259    0.49456   1.00
C6       0.52259    1.13495    0.49525   1.00
H3       0.50252    1.22697    0.49065   1.00
H3       0.46317    1.11200    0.49274   1.00
H3       0.56537    1.18213    0.49587   1.00
H3       0.54045    1.10925    0.49715   1.00
N1       0.32862    1.15643    0.37808   1.00
C6       0.32366    1.19346    0.36711   1.00
C6       0.32008    1.13427    0.34716   1.00
C6       0.31230    1.19505    0.32859   1.00
C6       0.31003    1.15741    0.31590   1.00
H3       0.32831    1.21800    0.38586   1.00
H3       0.32136    1.10303    0.34707   1.00
H3       0.30636    1.22075    0.31163   1.00
H3       0.30191    1.14787    0.28708   1.00
C4       0.18585    0.91488    0.41515   1.00
C4       0.14415    0.91512    0.41485   1.00
C3a      0.20754    0.91558    0.45073   1.00
C3       0.12268    0.88070    0.42182   1.00
C3       0.20732    0.91380    0.38005   1.00
C3a      0.12246    0.94992    0.40741   1.00
C2       0.27012    0.91493    0.41495   1.00
C2       0.05988    0.91494    0.41495   1.00
C3       0.24905    0.91568    0.45005   1.00
C3       0.08137    0.88068    0.42197   1.00
C3       0.24863    0.91395    0.37999   1.00
C3       0.08095    0.94928    0.40765   1.00
C5       0.18728    0.91687    0.48994   1.00
H1       0.13809    0.85371    0.42757   1.00
H1       0.26521    0.91642    0.47716   1.00
H1       0.06599    0.85369    0.42767   1.00
H1       0.26401    0.91333    0.35242   1.00
H1       0.06479    0.97584    0.40218   1.00
C5       0.14272    0.98839    0.39970   1.00
H1       0.19191    0.91324    0.35246   1.00
H2       0.12244    1.01291    0.40580   1.00
H2       0.16769    0.99216    0.42001   1.00
H2       0.20756    0.92841    0.51243   1.00
H2       0.16231    0.93750    0.48897   1.00
N1       0.15643    0.99066    0.35932   1.00
C6       0.13427    0.99192    0.32727   1.00
C6       0.19346    0.99299    0.34751   1.00
C6       0.15741    0.99456    0.29454   1.00
C6       0.19505    0.99525    0.30741   1.00
H3       0.10303    0.99065    0.32748   1.00
H3       0.21800    0.99274    0.36683   1.00
H3       0.14787    0.99587    0.26463   1.00
H3       0.22075    0.99715    0.28955   1.00
N1       0.17357    0.87808    0.50138   1.00
C6       0.13654    0.86711    0.50634   1.00
C6       0.19573    0.84716    0.50992   1.00
C6       0.13495    0.82859    0.51770   1.00
C6       0.17259    0.81590    0.51997   1.00
H3       0.11200    0.88586    0.50169   1.00
H3       0.22697    0.84707    0.50864   1.00
H3       0.10925    0.81163    0.52364   1.00
H3       0.18213    0.78708    0.52809   1.00
C4       0.64415    0.91488    0.41485   1.00
C4       0.68585    0.91512    0.41515   1.00
C3a      0.62246    0.91558    0.37927   1.00
C3       0.70732    0.88070    0.40818   1.00
C3       0.62268    0.91380    0.44995   1.00
C3a      0.70754    0.94992    0.42259   1.00
C2       0.55988    0.91493    0.41505   1.00
C2       0.77012    0.91494    0.41505   1.00
C3       0.58095    0.91568    0.37995   1.00
C3       0.74863    0.88068    0.40803   1.00
C3       0.58137    0.91395    0.45001   1.00
C3       0.74905    0.94928    0.42235   1.00
C5       0.64272    0.91687    0.34006   1.00
H1       0.69191    0.85371    0.40243   1.00
H1       0.56479    0.91642    0.35284   1.00
H1       0.76401    0.85369    0.40233   1.00
H1       0.56599    0.91333    0.47758   1.00
H1       0.76521    0.97584    0.42782   1.00
C5       0.68728    0.98839    0.43030   1.00
H1       0.63809    0.91324    0.47754   1.00
H2       0.70756    1.01291    0.42420   1.00
H2       0.66231    0.99216    0.40999   1.00
H2       0.62244    0.92841    0.31757   1.00
H2       0.66769    0.93750    0.34103   1.00
N1       0.67357    0.99066    0.47068   1.00
C6       0.69573    0.99192    0.50273   1.00
C6       0.63654    0.99299    0.48249   1.00
C6       0.67259    0.99456    0.53546   1.00
C6       0.63495    0.99525    0.52259   1.00
H3       0.72697    0.99065    0.50252   1.00
H3       0.61200    0.99274    0.46317   1.00
H3       0.68213    0.99587    0.56537   1.00
H3       0.60925    0.99715    0.54045   1.00
N1       0.65643    0.87808    0.32862   1.00
C6       0.69346    0.86711    0.32366   1.00
C6       0.63427    0.84716    0.32008   1.00
C6       0.69505    0.82859    0.31230   1.00
C6       0.65741    0.81590    0.31003   1.00
H3       0.71800    0.88586    0.32831   1.00
H3       0.60303    0.84707    0.32136   1.00
H3       0.72075    0.81163    0.30636   1.00
H3       0.64787    0.78708    0.30191   1.00
C4       0.41515    0.68585    0.41488   1.00
C4       0.41485    0.64415    0.41512   1.00
C3a      0.45073    0.70754    0.41558   1.00
C3       0.42182    0.62268    0.38070   1.00
C3       0.38005    0.70732    0.41380   1.00
C3a      0.40741    0.62246    0.44992   1.00
C2       0.41495    0.77012    0.41493   1.00
C2       0.41495    0.55988    0.41494   1.00
C3       0.45005    0.74905    0.41568   1.00
C3       0.42197    0.58137    0.38068   1.00
C3       0.37999    0.74863    0.41395   1.00
C3       0.40765    0.58095    0.44928   1.00
C5       0.48994    0.68728    0.41687   1.00
H1       0.42757    0.63809    0.35371   1.00
H1       0.47716    0.76521    0.41642   1.00
H1       0.42767    0.56599    0.35369   1.00
H1       0.35242    0.76401    0.41333   1.00
H1       0.40218    0.56479    0.47584   1.00
C5       0.39970    0.64272    0.48839   1.00
H1       0.35246    0.69191    0.41324   1.00
H2       0.40580    0.62244    0.51291   1.00
H2       0.42001    0.66769    0.49216   1.00
H2       0.51243    0.70756    0.42841   1.00
H2       0.48897    0.66231    0.43750   1.00
N1       0.35932    0.65643    0.49066   1.00
C6       0.32727    0.63427    0.49192   1.00
C6       0.34751    0.69346    0.49299   1.00
C6       0.29454    0.65741    0.49456   1.00
C6       0.30741    0.69505    0.49525   1.00
H3       0.32748    0.60303    0.49065   1.00
H3       0.36683    0.71800    0.49274   1.00
H3       0.26463    0.64787    0.49587   1.00
H3       0.28955    0.72075    0.49715   1.00
N1       0.50138    0.67357    0.37808   1.00
C6       0.50634    0.63654    0.36711   1.00
C6       0.50992    0.69573    0.34716   1.00
C6       0.51770    0.63495    0.32859   1.00
C6       0.51997    0.67259    0.31590   1.00
H3       0.50169    0.61200    0.38586   1.00
H3       0.50864    0.72697    0.34707   1.00
H3       0.52364    0.60925    0.31163   1.00
H3       0.52809    0.68213    0.28708   1.00
C4       0.41488    0.91515    0.18585   1.00
C4       0.41512    0.91485    0.14415   1.00
C3a      0.41558    0.95073    0.20754   1.00
C3       0.38070    0.92182    0.12268   1.00
C3       0.41380    0.88005    0.20732   1.00
C3a      0.44992    0.90741    0.12246   1.00
C2       0.41493    0.91495    0.27012   1.00
C2       0.41494    0.91495    0.05988   1.00
C3       0.41568    0.95005    0.24905   1.00
C3       0.38068    0.92197    0.08137   1.00
C3       0.41395    0.87999    0.24863   1.00
C3       0.44928    0.90765    0.08095   1.00
C5       0.41687    0.98994    0.18728   1.00
H1       0.35371    0.92757    0.13809   1.00
H1       0.41642    0.97716    0.26521   1.00
H1       0.35369    0.92767    0.06599   1.00
H1       0.41333    0.85242    0.26401   1.00
H1       0.47584    0.90218    0.06479   1.00
C5       0.48839    0.89970    0.14272   1.00
H1       0.41324    0.85246    0.19191   1.00
H2       0.51291    0.90580    0.12244   1.00
H2       0.49216    0.92001    0.16769   1.00
H2       0.42841    1.01243    0.20756   1.00
H2       0.43750    0.98897    0.16231   1.00
N1       0.49066    0.85932    0.15643   1.00
C6       0.49192    0.82727    0.13427   1.00
C6       0.49299    0.84751    0.19346   1.00
C6       0.49456    0.79454    0.15741   1.00
C6       0.49525    0.80741    0.19505   1.00
H3       0.49065    0.82748    0.10303   1.00
H3       0.49274    0.86683    0.21800   1.00
H3       0.49587    0.76463    0.14787   1.00
H3       0.49715    0.78955    0.22075   1.00
N1       0.37808    1.00138    0.17357   1.00
C6       0.36711    1.00634    0.13654   1.00
C6       0.34716    1.00992    0.19573   1.00
C6       0.32859    1.01770    0.13495   1.00
C6       0.31590    1.01997    0.17259   1.00
H3       0.38586    1.00169    0.11200   1.00
H3       0.34707    1.00864    0.22697   1.00
H3       0.31163    1.02364    0.10925   1.00
H3       0.28708    1.02809    0.18213   1.00
C4       0.91488    0.41485    0.64415   1.00
C4       0.91512    0.41515    0.68585   1.00
C3a      0.91558    0.37927    0.62246   1.00
C3       0.88070    0.40818    0.70732   1.00
C3       0.91380    0.44995    0.62268   1.00
C3a      0.94992    0.42259    0.70754   1.00
C2       0.91493    0.41505    0.55988   1.00
C2       0.91494    0.41505    0.77012   1.00
C3       0.91568    0.37995    0.58095   1.00
C3       0.88068    0.40803    0.74863   1.00
C3       0.91395    0.45001    0.58137   1.00
C3       0.94928    0.42235    0.74905   1.00
C5       0.91687    0.34006    0.64272   1.00
H1       0.85371    0.40243    0.69191   1.00
H1       0.91642    0.35284    0.56479   1.00
H1       0.85369    0.40233    0.76401   1.00
H1       0.91333    0.47758    0.56599   1.00
H1       0.97584    0.42782    0.76521   1.00
C5       0.98839    0.43030    0.68728   1.00
H1       0.91324    0.47754    0.63809   1.00
H2       1.01291    0.42420    0.70756   1.00
H2       0.99216    0.40999    0.66231   1.00
H2       0.92841    0.31757    0.62244   1.00
H2       0.93750    0.34103    0.66769   1.00
N1       0.99066    0.47068    0.67357   1.00
C6       0.99192    0.50273    0.69573   1.00
C6       0.99299    0.48249    0.63654   1.00
C6       0.99456    0.53546    0.67259   1.00
C6       0.99525    0.52259    0.63495   1.00
H3       0.99065    0.50252    0.72697   1.00
H3       0.99274    0.46317    0.61200   1.00
H3       0.99587    0.56537    0.68213   1.00
H3       0.99715    0.54045    0.60925   1.00
N1       0.87808    0.32862    0.65643   1.00
C6       0.86711    0.32366    0.69346   1.00
C6       0.84716    0.32008    0.63427   1.00
C6       0.82859    0.31230    0.69505   1.00
C6       0.81590    0.31003    0.65741   1.00
H3       0.88586    0.32831    0.71800   1.00
H3       0.84707    0.32136    0.60303   1.00
H3       0.81163    0.30636    0.72075   1.00
H3       0.78708    0.30191    0.64787   1.00
C4       0.91485    0.64415    0.41488   1.00
C4       0.91515    0.68585    0.41512   1.00
C3a      0.87927    0.62246    0.41558   1.00
C3       0.90818    0.70732    0.38070   1.00
C3       0.94995    0.62268    0.41380   1.00
C3a      0.92259    0.70754    0.44992   1.00
C2       0.91505    0.55988    0.41493   1.00
C2       0.91505    0.77012    0.41494   1.00
C3       0.87995    0.58095    0.41568   1.00
C3       0.90803    0.74863    0.38068   1.00
C3       0.95001    0.58137    0.41395   1.00
C3       0.92235    0.74905    0.44928   1.00
C5       0.84006    0.64272    0.41687   1.00
H1       0.90243    0.69191    0.35371   1.00
H1       0.85284    0.56479    0.41642   1.00
H1       0.90233    0.76401    0.35369   1.00
H1       0.97758    0.56599    0.41333   1.00
H1       0.92782    0.76521    0.47584   1.00
C5       0.93030    0.68728    0.48839   1.00
H1       0.97754    0.63809    0.41324   1.00
H2       0.92420    0.70756    0.51291   1.00
H2       0.90999    0.66231    0.49216   1.00
H2       0.81757    0.62244    0.42841   1.00
H2       0.84103    0.66769    0.43750   1.00
N1       0.97068    0.67357    0.49066   1.00
C6       1.00273    0.69573    0.49192   1.00
C6       0.98249    0.63654    0.49299   1.00
C6       1.03546    0.67259    0.49456   1.00
C6       1.02259    0.63495    0.49525   1.00
H3       1.00252    0.72697    0.49065   1.00
H3       0.96317    0.61200    0.49274   1.00
H3       1.06537    0.68213    0.49587   1.00
H3       1.04045    0.60925    0.49715   1.00
N1       0.82862    0.65643    0.37808   1.00
C6       0.82366    0.69346    0.36711   1.00
C6       0.82008    0.63427    0.34716   1.00
C6       0.81230    0.69505    0.32859   1.00
C6       0.81003    0.65741    0.31590   1.00
H3       0.82831    0.71800    0.38586   1.00
H3       0.82136    0.60303    0.34707   1.00
H3       0.80636    0.72075    0.31163   1.00
H3       0.80191    0.64787    0.28708   1.00
C4       0.68585    0.41488    0.41515   1.00
C4       0.64415    0.41512    0.41485   1.00
C3a      0.70754    0.41558    0.45073   1.00
C3       0.62268    0.38070    0.42182   1.00
C3       0.70732    0.41380    0.38005   1.00
C3a      0.62246    0.44992    0.40741   1.00
C2       0.77012    0.41493    0.41495   1.00
C2       0.55988    0.41494    0.41495   1.00
C3       0.74905    0.41568    0.45005   1.00
C3       0.58137    0.38068    0.42197   1.00
C3       0.74863    0.41395    0.37999   1.00
C3       0.58095    0.44928    0.40765   1.00
C5       0.68728    0.41687    0.48994   1.00
H1       0.63809    0.35371    0.42757   1.00
H1       0.76521    0.41642    0.47716   1.00
H1       0.56599    0.35369    0.42767   1.00
H1       0.76401    0.41333    0.35242   1.00
H1       0.56479    0.47584    0.40218   1.00
C5       0.64272    0.48839    0.39970   1.00
H1       0.69191    0.41324    0.35246   1.00
H2       0.62244    0.51291    0.40580   1.00
H2       0.66769    0.49216    0.42001   1.00
H2       0.70756    0.42841    0.51243   1.00
H2       0.66231    0.43750    0.48897   1.00
N1       0.65643    0.49066    0.35932   1.00
C6       0.63427    0.49192    0.32727   1.00
C6       0.69346    0.49299    0.34751   1.00
C6       0.65741    0.49456    0.29454   1.00
C6       0.69505    0.49525    0.30741   1.00
H3       0.60303    0.49065    0.32748   1.00
H3       0.71800    0.49274    0.36683   1.00
H3       0.64787    0.49587    0.26463   1.00
H3       0.72075    0.49715    0.28955   1.00
N1       0.67357    0.37808    0.50138   1.00
C6       0.63654    0.36711    0.50634   1.00
C6       0.69573    0.34716    0.50992   1.00
C6       0.63495    0.32859    0.51770   1.00
C6       0.67259    0.31590    0.51997   1.00
H3       0.61200    0.38586    0.50169   1.00
H3       0.72697    0.34707    0.50864   1.00
H3       0.60925    0.31163    0.52364   1.00
H3       0.68213    0.28708    0.52809   1.00
C4       1.14415    0.41488    0.41485   1.00
C4       1.18585    0.41512    0.41515   1.00
C3a      1.12246    0.41558    0.37927   1.00
C3       1.20732    0.38070    0.40818   1.00
C3       1.12268    0.41380    0.44995   1.00
C3a      1.20754    0.44992    0.42259   1.00
C2       1.05988    0.41493    0.41505   1.00
C2       1.27012    0.41494    0.41505   1.00
C3       1.08095    0.41568    0.37995   1.00
C3       1.24863    0.38068    0.40803   1.00
C3       1.08137    0.41395    0.45001   1.00
C3       1.24905    0.44928    0.42235   1.00
C5       1.14272    0.41687    0.34006   1.00
H1       1.19191    0.35371    0.40243   1.00
H1       1.06479    0.41642    0.35284   1.00
H1       1.26401    0.35369    0.40233   1.00
H1       1.06599    0.41333    0.47758   1.00
H1       1.26521    0.47584    0.42782   1.00
C5       1.18728    0.48839    0.43030   1.00
H1       1.13809    0.41324    0.47754   1.00
H2       1.20756    0.51291    0.42420   1.00
H2       1.16231    0.49216    0.40999   1.00
H2       1.12244    0.42841    0.31757   1.00
H2       1.16769    0.43750    0.34103   1.00
N1       1.17357    0.49066    0.47068   1.00
C6       1.19573    0.49192    0.50273   1.00
C6       1.13654    0.49299    0.48249   1.00
C6       1.17259    0.49456    0.53546   1.00
C6       1.13495    0.49525    0.52259   1.00
H3       1.22697    0.49065    0.50252   1.00
H3       1.11200    0.49274    0.46317   1.00
H3       1.18213    0.49587    0.56537   1.00
H3       1.10925    0.49715    0.54045   1.00
N1       1.15643    0.37808    0.32862   1.00
C6       1.19346    0.36711    0.32366   1.00
C6       1.13427    0.34716    0.32008   1.00
C6       1.19505    0.32859    0.31230   1.00
C6       1.15741    0.31590    0.31003   1.00
H3       1.21800    0.38586    0.32831   1.00
H3       1.10303    0.34707    0.32136   1.00
H3       1.22075    0.31163    0.30636   1.00
H3       1.14787    0.28708    0.30191   1.00
C4       0.91515    0.18585    0.41488   1.00
C4       0.91485    0.14415    0.41512   1.00
C3a      0.95073    0.20754    0.41558   1.00
C3       0.92182    0.12268    0.38070   1.00
C3       0.88005    0.20732    0.41380   1.00
C3a      0.90741    0.12246    0.44992   1.00
C2       0.91495    0.27012    0.41493   1.00
C2       0.91495    0.05988    0.41494   1.00
C3       0.95005    0.24905    0.41568   1.00
C3       0.92197    0.08137    0.38068   1.00
C3       0.87999    0.24863    0.41395   1.00
C3       0.90765    0.08095    0.44928   1.00
C5       0.98994    0.18728    0.41687   1.00
H1       0.92757    0.13809    0.35371   1.00
H1       0.97716    0.26521    0.41642   1.00
H1       0.92767    0.06599    0.35369   1.00
H1       0.85242    0.26401    0.41333   1.00
H1       0.90218    0.06479    0.47584   1.00
C5       0.89970    0.14272    0.48839   1.00
H1       0.85246    0.19191    0.41324   1.00
H2       0.90580    0.12244    0.51291   1.00
H2       0.92001    0.16769    0.49216   1.00
H2       1.01243    0.20756    0.42841   1.00
H2       0.98897    0.16231    0.43750   1.00
N1       0.85932    0.15643    0.49066   1.00
C6       0.82727    0.13427    0.49192   1.00
C6       0.84751    0.19346    0.49299   1.00
C6       0.79454    0.15741    0.49456   1.00
C6       0.80741    0.19505    0.49525   1.00
H3       0.82748    0.10303    0.49065   1.00
H3       0.86683    0.21800    0.49274   1.00
H3       0.76463    0.14787    0.49587   1.00
H3       0.78955    0.22075    0.49715   1.00
N1       1.00138    0.17357    0.37808   1.00
C6       1.00634    0.13654    0.36711   1.00
C6       1.00992    0.19573    0.34716   1.00
C6       1.01770    0.13495    0.32859   1.00
C6       1.01997    0.17259    0.31590   1.00
H3       1.00169    0.11200    0.38586   1.00
H3       1.00864    0.22697    0.34707   1.00
H3       1.02364    0.10925    0.31163   1.00
H3       1.02809    0.18213    0.28708   1.00
C4       0.91488    0.41515    0.18585   1.00
C4       0.91512    0.41485    0.14415   1.00
C3a      0.91558    0.45073    0.20754   1.00
C3       0.88070    0.42182    0.12268   1.00
C3       0.91380    0.38005    0.20732   1.00
C3a      0.94992    0.40741    0.12246   1.00
C2       0.91493    0.41495    0.27012   1.00
C2       0.91494    0.41495    0.05988   1.00
C3       0.91568    0.45005    0.24905   1.00
C3       0.88068    0.42197    0.08137   1.00
C3       0.91395    0.37999    0.24863   1.00
C3       0.94928    0.40765    0.08095   1.00
C5       0.91687    0.48994    0.18728   1.00
H1       0.85371    0.42757    0.13809   1.00
H1       0.91642    0.47716    0.26521   1.00
H1       0.85369    0.42767    0.06599   1.00
H1       0.91333    0.35242    0.26401   1.00
H1       0.97584    0.40218    0.06479   1.00
C5       0.98839    0.39970    0.14272   1.00
H1       0.91324    0.35246    0.19191   1.00
H2       1.01291    0.40580    0.12244   1.00
H2       0.99216    0.42001    0.16769   1.00
H2       0.92841    0.51243    0.20756   1.00
H2       0.93750    0.48897    0.16231   1.00
N1       0.99066    0.35932    0.15643   1.00
C6       0.99192    0.32727    0.13427   1.00
C6       0.99299    0.34751    0.19346   1.00
C6       0.99456    0.29454    0.15741   1.00
C6       0.99525    0.30741    0.19505   1.00
H3       0.99065    0.32748    0.10303   1.00
H3       0.99274    0.36683    0.21800   1.00
H3       0.99587    0.26463    0.14787   1.00
H3       0.99715    0.28955    0.22075   1.00
N1       0.87808    0.50138    0.17357   1.00
C6       0.86711    0.50634    0.13654   1.00
C6       0.84716    0.50992    0.19573   1.00
C6       0.82859    0.51770    0.13495   1.00
C6       0.81590    0.51997    0.17259   1.00
H3       0.88586    0.50169    0.11200   1.00
H3       0.84707    0.50864    0.22697   1.00
H3       0.81163    0.52364    0.10925   1.00
H3       0.78708    0.52809    0.18213   1.00
