data_IRMOF10_SG202_interpen_Ligand11cp_label_c.

_audit_creation_method             'generated by an auxiliary program of Tobunporous'

_symmetry_space_group_name_H-M     'P 1'
_symmetry_Int_Tables_number        1
_symmetry_cell_setting             triclinic

_cell_length_a                    34.2800
_cell_length_b                    34.2800
_cell_length_c                    34.2800
_cell_angle_alpha                 90.0000
_cell_angle_beta                  90.0000
_cell_angle_gamma                 90.0000

loop_
_atom_site_label
_atom_site_fract_x
_atom_site_fract_y
_atom_site_fract_z
_atom_site_occupancy
O1       0.75000    0.75000    0.75000   1.00
Zn1      0.71720    0.78280    0.78280   1.00
Zn1      0.78280    0.71720    0.78280   1.00
Zn1      0.78280    0.78280    0.71720   1.00
Zn1      0.71720    0.71720    0.71720   1.00
O2       0.72650    0.77350    0.83820   1.00
O2       0.72650    0.83820    0.77350   1.00
O2       0.66180    0.77350    0.77350   1.00
O2       0.77350    0.72650    0.83820   1.00
O2       0.83820    0.72650    0.77350   1.00
O2       0.77350    0.66180    0.77350   1.00
O2       0.77350    0.83820    0.72650   1.00
O2       0.83820    0.77350    0.72650   1.00
O2       0.77350    0.77350    0.66180   1.00
O2       0.66180    0.72650    0.72650   1.00
O2       0.72650    0.66180    0.72650   1.00
O2       0.72650    0.72650    0.66180   1.00
C1       0.75000    0.75000    0.85520   1.00
C1       0.75000    0.85520    0.75000   1.00
C1       0.64480    0.75000    0.75000   1.00
C1       0.85520    0.75000    0.75000   1.00
C1       0.75000    0.64480    0.75000   1.00
C1       0.75000    0.75000    0.64480   1.00
O1       0.25000    0.25000    0.75000   1.00
Zn1      0.21720    0.28280    0.78280   1.00
Zn1      0.28280    0.21720    0.78280   1.00
Zn1      0.28280    0.28280    0.71720   1.00
Zn1      0.21720    0.21720    0.71720   1.00
O2       0.22650    0.27350    0.83820   1.00
O2       0.22650    0.33820    0.77350   1.00
O2       0.16180    0.27350    0.77350   1.00
O2       0.27350    0.22650    0.83820   1.00
O2       0.33820    0.22650    0.77350   1.00
O2       0.27350    0.16180    0.77350   1.00
O2       0.27350    0.33820    0.72650   1.00
O2       0.33820    0.27350    0.72650   1.00
O2       0.27350    0.27350    0.66180   1.00
O2       0.16180    0.22650    0.72650   1.00
O2       0.22650    0.16180    0.72650   1.00
O2       0.22650    0.22650    0.66180   1.00
C1       0.25000    0.25000    0.85520   1.00
C1       0.25000    0.35520    0.75000   1.00
C1       0.14480    0.25000    0.75000   1.00
C1       0.35520    0.25000    0.75000   1.00
C1       0.25000    0.14480    0.75000   1.00
C1       0.25000    0.25000    0.64480   1.00
O1       0.25000    0.75000    0.25000   1.00
Zn1      0.21720    0.78280    0.28280   1.00
Zn1      0.28280    0.71720    0.28280   1.00
Zn1      0.28280    0.78280    0.21720   1.00
Zn1      0.21720    0.71720    0.21720   1.00
O2       0.22650    0.77350    0.33820   1.00
O2       0.22650    0.83820    0.27350   1.00
O2       0.16180    0.77350    0.27350   1.00
O2       0.27350    0.72650    0.33820   1.00
O2       0.33820    0.72650    0.27350   1.00
O2       0.27350    0.66180    0.27350   1.00
O2       0.27350    0.83820    0.22650   1.00
O2       0.33820    0.77350    0.22650   1.00
O2       0.27350    0.77350    0.16180   1.00
O2       0.16180    0.72650    0.22650   1.00
O2       0.22650    0.66180    0.22650   1.00
O2       0.22650    0.72650    0.16180   1.00
C1       0.25000    0.75000    0.35520   1.00
C1       0.25000    0.85520    0.25000   1.00
C1       0.14480    0.75000    0.25000   1.00
C1       0.35520    0.75000    0.25000   1.00
C1       0.25000    0.64480    0.25000   1.00
C1       0.25000    0.75000    0.14480   1.00
O1       0.75000    0.25000    0.25000   1.00
Zn1      0.71720    0.28280    0.28280   1.00
Zn1      0.78280    0.21720    0.28280   1.00
Zn1      0.78280    0.28280    0.21720   1.00
Zn1      0.71720    0.21720    0.21720   1.00
O2       0.72650    0.27350    0.33820   1.00
O2       0.72650    0.33820    0.27350   1.00
O2       0.66180    0.27350    0.27350   1.00
O2       0.77350    0.22650    0.33820   1.00
O2       0.83820    0.22650    0.27350   1.00
O2       0.77350    0.16180    0.27350   1.00
O2       0.77350    0.33820    0.22650   1.00
O2       0.83820    0.27350    0.22650   1.00
O2       0.77350    0.27350    0.16180   1.00
O2       0.66180    0.22650    0.22650   1.00
O2       0.72650    0.16180    0.22650   1.00
O2       0.72650    0.22650    0.16180   1.00
C1       0.75000    0.25000    0.35520   1.00
C1       0.75000    0.35520    0.25000   1.00
C1       0.64480    0.25000    0.25000   1.00
C1       0.85520    0.25000    0.25000   1.00
C1       0.75000    0.14480    0.25000   1.00
C1       0.75000    0.25000    0.14480   1.00
O1       0.25000    0.25000    0.25000   1.00
Zn1      0.28280    0.21720    0.21720   1.00
Zn1      0.21720    0.28280    0.21720   1.00
Zn1      0.21720    0.21720    0.28280   1.00
Zn1      0.28280    0.28280    0.28280   1.00
O2       0.27350    0.22650    0.16180   1.00
O2       0.27350    0.16180    0.22650   1.00
O2       0.33820    0.22650    0.22650   1.00
O2       0.22650    0.27350    0.16180   1.00
O2       0.16180    0.27350    0.22650   1.00
O2       0.22650    0.33820    0.22650   1.00
O2       0.22650    0.16180    0.27350   1.00
O2       0.16180    0.22650    0.27350   1.00
O2       0.22650    0.22650    0.33820   1.00
O2       0.33820    0.27350    0.27350   1.00
O2       0.27350    0.33820    0.27350   1.00
O2       0.27350    0.27350    0.33820   1.00
C1       0.25000    0.25000    0.14480   1.00
C1       0.25000    0.14480    0.25000   1.00
C1       0.35520    0.25000    0.25000   1.00
C1       0.14480    0.25000    0.25000   1.00
C1       0.25000    0.35520    0.25000   1.00
C1       0.25000    0.25000    0.35520   1.00
O1       0.75000    0.75000    0.25000   1.00
Zn1      0.78280    0.71720    0.21720   1.00
Zn1      0.71720    0.78280    0.21720   1.00
Zn1      0.71720    0.71720    0.28280   1.00
Zn1      0.78280    0.78280    0.28280   1.00
O2       0.77350    0.72650    0.16180   1.00
O2       0.77350    0.66180    0.22650   1.00
O2       0.83820    0.72650    0.22650   1.00
O2       0.72650    0.77350    0.16180   1.00
O2       0.66180    0.77350    0.22650   1.00
O2       0.72650    0.83820    0.22650   1.00
O2       0.72650    0.66180    0.27350   1.00
O2       0.66180    0.72650    0.27350   1.00
O2       0.72650    0.72650    0.33820   1.00
O2       0.83820    0.77350    0.27350   1.00
O2       0.77350    0.83820    0.27350   1.00
O2       0.77350    0.77350    0.33820   1.00
C1       0.75000    0.75000    0.14480   1.00
C1       0.75000    0.64480    0.25000   1.00
C1       0.85520    0.75000    0.25000   1.00
C1       0.64480    0.75000    0.25000   1.00
C1       0.75000    0.85520    0.25000   1.00
C1       0.75000    0.75000    0.35520   1.00
O1       0.75000    0.25000    0.75000   1.00
Zn1      0.78280    0.21720    0.71720   1.00
Zn1      0.71720    0.28280    0.71720   1.00
Zn1      0.71720    0.21720    0.78280   1.00
Zn1      0.78280    0.28280    0.78280   1.00
O2       0.77350    0.22650    0.66180   1.00
O2       0.77350    0.16180    0.72650   1.00
O2       0.83820    0.22650    0.72650   1.00
O2       0.72650    0.27350    0.66180   1.00
O2       0.66180    0.27350    0.72650   1.00
O2       0.72650    0.33820    0.72650   1.00
O2       0.72650    0.16180    0.77350   1.00
O2       0.66180    0.22650    0.77350   1.00
O2       0.72650    0.22650    0.83820   1.00
O2       0.83820    0.27350    0.77350   1.00
O2       0.77350    0.33820    0.77350   1.00
O2       0.77350    0.27350    0.83820   1.00
C1       0.75000    0.25000    0.64480   1.00
C1       0.75000    0.14480    0.75000   1.00
C1       0.85520    0.25000    0.75000   1.00
C1       0.64480    0.25000    0.75000   1.00
C1       0.75000    0.35520    0.75000   1.00
C1       0.75000    0.25000    0.85520   1.00
O1       0.25000    0.75000    0.75000   1.00
Zn1      0.28280    0.71720    0.71720   1.00
Zn1      0.21720    0.78280    0.71720   1.00
Zn1      0.21720    0.71720    0.78280   1.00
Zn1      0.28280    0.78280    0.78280   1.00
O2       0.27350    0.72650    0.66180   1.00
O2       0.27350    0.66180    0.72650   1.00
O2       0.33820    0.72650    0.72650   1.00
O2       0.22650    0.77350    0.66180   1.00
O2       0.16180    0.77350    0.72650   1.00
O2       0.22650    0.83820    0.72650   1.00
O2       0.22650    0.66180    0.77350   1.00
O2       0.16180    0.72650    0.77350   1.00
O2       0.22650    0.72650    0.83820   1.00
O2       0.33820    0.77350    0.77350   1.00
O2       0.27350    0.83820    0.77350   1.00
O2       0.27350    0.77350    0.83820   1.00
C1       0.25000    0.75000    0.64480   1.00
C1       0.25000    0.64480    0.75000   1.00
C1       0.35520    0.75000    0.75000   1.00
C1       0.14480    0.75000    0.75000   1.00
C1       0.25000    0.85520    0.75000   1.00
C1       0.25000    0.75000    0.85520   1.00
O1       0.91500    0.91500    0.91500   1.00
Zn1      0.88220    0.94780    0.94780   1.00
Zn1      0.94780    0.88220    0.94780   1.00
Zn1      0.94780    0.94780    0.88220   1.00
Zn1      0.88220    0.88220    0.88220   1.00
O2       0.89150    0.93850    1.00320   1.00
O2       0.89150    1.00320    0.93850   1.00
O2       0.82680    0.93850    0.93850   1.00
O2       0.93850    0.89150    1.00320   1.00
O2       1.00320    0.89150    0.93850   1.00
O2       0.93850    0.82680    0.93850   1.00
O2       0.93850    1.00320    0.89150   1.00
O2       1.00320    0.93850    0.89150   1.00
O2       0.93850    0.93850    0.82680   1.00
O2       0.82680    0.89150    0.89150   1.00
O2       0.89150    0.82680    0.89150   1.00
O2       0.89150    0.89150    0.82680   1.00
C1       0.91500    0.91500    1.02020   1.00
C1       0.91500    1.02020    0.91500   1.00
C1       0.80980    0.91500    0.91500   1.00
C1       1.02020    0.91500    0.91500   1.00
C1       0.91500    0.80980    0.91500   1.00
C1       0.91500    0.91500    0.80980   1.00
O1       0.41500    0.41500    0.91500   1.00
Zn1      0.38220    0.44780    0.94780   1.00
Zn1      0.44780    0.38220    0.94780   1.00
Zn1      0.44780    0.44780    0.88220   1.00
Zn1      0.38220    0.38220    0.88220   1.00
O2       0.39150    0.43850    1.00320   1.00
O2       0.39150    0.50320    0.93850   1.00
O2       0.32680    0.43850    0.93850   1.00
O2       0.43850    0.39150    1.00320   1.00
O2       0.50320    0.39150    0.93850   1.00
O2       0.43850    0.32680    0.93850   1.00
O2       0.43850    0.50320    0.89150   1.00
O2       0.50320    0.43850    0.89150   1.00
O2       0.43850    0.43850    0.82680   1.00
O2       0.32680    0.39150    0.89150   1.00
O2       0.39150    0.32680    0.89150   1.00
O2       0.39150    0.39150    0.82680   1.00
C1       0.41500    0.41500    1.02020   1.00
C1       0.41500    0.52020    0.91500   1.00
C1       0.30980    0.41500    0.91500   1.00
C1       0.52020    0.41500    0.91500   1.00
C1       0.41500    0.30980    0.91500   1.00
C1       0.41500    0.41500    0.80980   1.00
O1       0.41500    0.91500    0.41500   1.00
Zn1      0.38220    0.94780    0.44780   1.00
Zn1      0.44780    0.88220    0.44780   1.00
Zn1      0.44780    0.94780    0.38220   1.00
Zn1      0.38220    0.88220    0.38220   1.00
O2       0.39150    0.93850    0.50320   1.00
O2       0.39150    1.00320    0.43850   1.00
O2       0.32680    0.93850    0.43850   1.00
O2       0.43850    0.89150    0.50320   1.00
O2       0.50320    0.89150    0.43850   1.00
O2       0.43850    0.82680    0.43850   1.00
O2       0.43850    1.00320    0.39150   1.00
O2       0.50320    0.93850    0.39150   1.00
O2       0.43850    0.93850    0.32680   1.00
O2       0.32680    0.89150    0.39150   1.00
O2       0.39150    0.82680    0.39150   1.00
O2       0.39150    0.89150    0.32680   1.00
C1       0.41500    0.91500    0.52020   1.00
C1       0.41500    1.02020    0.41500   1.00
C1       0.30980    0.91500    0.41500   1.00
C1       0.52020    0.91500    0.41500   1.00
C1       0.41500    0.80980    0.41500   1.00
C1       0.41500    0.91500    0.30980   1.00
O1       0.91500    0.41500    0.41500   1.00
Zn1      0.88220    0.44780    0.44780   1.00
Zn1      0.94780    0.38220    0.44780   1.00
Zn1      0.94780    0.44780    0.38220   1.00
Zn1      0.88220    0.38220    0.38220   1.00
O2       0.89150    0.43850    0.50320   1.00
O2       0.89150    0.50320    0.43850   1.00
O2       0.82680    0.43850    0.43850   1.00
O2       0.93850    0.39150    0.50320   1.00
O2       1.00320    0.39150    0.43850   1.00
O2       0.93850    0.32680    0.43850   1.00
O2       0.93850    0.50320    0.39150   1.00
O2       1.00320    0.43850    0.39150   1.00
O2       0.93850    0.43850    0.32680   1.00
O2       0.82680    0.39150    0.39150   1.00
O2       0.89150    0.32680    0.39150   1.00
O2       0.89150    0.39150    0.32680   1.00
C1       0.91500    0.41500    0.52020   1.00
C1       0.91500    0.52020    0.41500   1.00
C1       0.80980    0.41500    0.41500   1.00
C1       1.02020    0.41500    0.41500   1.00
C1       0.91500    0.30980    0.41500   1.00
C1       0.91500    0.41500    0.30980   1.00
O1       0.41500    0.41500    0.41500   1.00
Zn1      0.44780    0.38220    0.38220   1.00
Zn1      0.38220    0.44780    0.38220   1.00
Zn1      0.38220    0.38220    0.44780   1.00
Zn1      0.44780    0.44780    0.44780   1.00
O2       0.43850    0.39150    0.32680   1.00
O2       0.43850    0.32680    0.39150   1.00
O2       0.50320    0.39150    0.39150   1.00
O2       0.39150    0.43850    0.32680   1.00
O2       0.32680    0.43850    0.39150   1.00
O2       0.39150    0.50320    0.39150   1.00
O2       0.39150    0.32680    0.43850   1.00
O2       0.32680    0.39150    0.43850   1.00
O2       0.39150    0.39150    0.50320   1.00
O2       0.50320    0.43850    0.43850   1.00
O2       0.43850    0.50320    0.43850   1.00
O2       0.43850    0.43850    0.50320   1.00
C1       0.41500    0.41500    0.30980   1.00
C1       0.41500    0.30980    0.41500   1.00
C1       0.52020    0.41500    0.41500   1.00
C1       0.30980    0.41500    0.41500   1.00
C1       0.41500    0.52020    0.41500   1.00
C1       0.41500    0.41500    0.52020   1.00
O1       0.91500    0.91500    0.41500   1.00
Zn1      0.94780    0.88220    0.38220   1.00
Zn1      0.88220    0.94780    0.38220   1.00
Zn1      0.88220    0.88220    0.44780   1.00
Zn1      0.94780    0.94780    0.44780   1.00
O2       0.93850    0.89150    0.32680   1.00
O2       0.93850    0.82680    0.39150   1.00
O2       1.00320    0.89150    0.39150   1.00
O2       0.89150    0.93850    0.32680   1.00
O2       0.82680    0.93850    0.39150   1.00
O2       0.89150    1.00320    0.39150   1.00
O2       0.89150    0.82680    0.43850   1.00
O2       0.82680    0.89150    0.43850   1.00
O2       0.89150    0.89150    0.50320   1.00
O2       1.00320    0.93850    0.43850   1.00
O2       0.93850    1.00320    0.43850   1.00
O2       0.93850    0.93850    0.50320   1.00
C1       0.91500    0.91500    0.30980   1.00
C1       0.91500    0.80980    0.41500   1.00
C1       1.02020    0.91500    0.41500   1.00
C1       0.80980    0.91500    0.41500   1.00
C1       0.91500    1.02020    0.41500   1.00
C1       0.91500    0.91500    0.52020   1.00
O1       0.91500    0.41500    0.91500   1.00
Zn1      0.94780    0.38220    0.88220   1.00
Zn1      0.88220    0.44780    0.88220   1.00
Zn1      0.88220    0.38220    0.94780   1.00
Zn1      0.94780    0.44780    0.94780   1.00
O2       0.93850    0.39150    0.82680   1.00
O2       0.93850    0.32680    0.89150   1.00
O2       1.00320    0.39150    0.89150   1.00
O2       0.89150    0.43850    0.82680   1.00
O2       0.82680    0.43850    0.89150   1.00
O2       0.89150    0.50320    0.89150   1.00
O2       0.89150    0.32680    0.93850   1.00
O2       0.82680    0.39150    0.93850   1.00
O2       0.89150    0.39150    1.00320   1.00
O2       1.00320    0.43850    0.93850   1.00
O2       0.93850    0.50320    0.93850   1.00
O2       0.93850    0.43850    1.00320   1.00
C1       0.91500    0.41500    0.80980   1.00
C1       0.91500    0.30980    0.91500   1.00
C1       1.02020    0.41500    0.91500   1.00
C1       0.80980    0.41500    0.91500   1.00
C1       0.91500    0.52020    0.91500   1.00
C1       0.91500    0.41500    1.02020   1.00
O1       0.41500    0.91500    0.91500   1.00
Zn1      0.44780    0.88220    0.88220   1.00
Zn1      0.38220    0.94780    0.88220   1.00
Zn1      0.38220    0.88220    0.94780   1.00
Zn1      0.44780    0.94780    0.94780   1.00
O2       0.43850    0.89150    0.82680   1.00
O2       0.43850    0.82680    0.89150   1.00
O2       0.50320    0.89150    0.89150   1.00
O2       0.39150    0.93850    0.82680   1.00
O2       0.32680    0.93850    0.89150   1.00
O2       0.39150    1.00320    0.89150   1.00
O2       0.39150    0.82680    0.93850   1.00
O2       0.32680    0.89150    0.93850   1.00
O2       0.39150    0.89150    1.00320   1.00
O2       0.50320    0.93850    0.93850   1.00
O2       0.43850    1.00320    0.93850   1.00
O2       0.43850    0.93850    1.00320   1.00
C1       0.41500    0.91500    0.80980   1.00
C1       0.41500    0.80980    0.91500   1.00
C1       0.52020    0.91500    0.91500   1.00
C1       0.30980    0.91500    0.91500   1.00
C1       0.41500    1.02020    0.91500   1.00
C1       0.41500    0.91500    1.02020   1.00
C4       0.75016    0.75012    0.97915   1.00
C4       0.74984    0.74988    1.02085   1.00
C3a      0.75868    0.78466    0.95746   1.00
C3       0.78490    0.74771    1.04232   1.00
C3       0.74212    0.71592    0.95768   1.00
C3a      0.71431    0.75170    1.04254   1.00
C2       0.75005    0.74994    0.89488   1.00
C2       0.75005    0.74993    1.10512   1.00
C3       0.75841    0.78404    0.91595   1.00
C3       0.78496    0.74785    1.08363   1.00
C3       0.74196    0.71591    0.91637   1.00
C3       0.71498    0.75177    1.08405   1.00
C5       0.76758    0.82287    0.97772   1.00
H1       0.81246    0.74629    1.02691   1.00
H1       0.76471    0.81041    0.89979   1.00
H1       0.81250    0.74637    1.09901   1.00
H1       0.73542    0.68912    0.90099   1.00
H1       0.68791    0.75336    1.10021   1.00
C5       0.67515    0.75421    1.02228   1.00
H1       0.73552    0.68913    0.97309   1.00
H2       0.65304    0.76645    1.04256   1.00
H2       0.67677    0.77480    0.99731   1.00
H2       0.76225    0.84758    0.95744   1.00
H2       0.74740    0.82727    1.00269   1.00
N1       0.66251    0.71579    1.00857   1.00
C6       0.65300    0.68516    1.03073   1.00
C6       0.65721    0.70499    0.97154   1.00
C6       0.64198    0.65422    1.00759   1.00
C6       0.64465    0.66684    0.96995   1.00
H3       0.65429    0.68503    1.06197   1.00
H3       0.66244    0.72358    0.94700   1.00
H3       0.63298    0.62568    1.01713   1.00
H3       0.63819    0.65008    0.94425   1.00
N1       0.80801    0.82388    0.99143   1.00
C6       0.81989    0.82584    1.02846   1.00
C6       0.84009    0.82414    0.96927   1.00
C6       0.86004    0.82685    1.03005   1.00
C6       0.87289    0.82576    0.99241   1.00
H3       0.80058    0.82620    1.05300   1.00
H3       0.83984    0.82288    0.93803   1.00
H3       0.87795    0.82820    1.05575   1.00
H3       0.90282    0.82614    0.98287   1.00
C4       0.75012    0.97915    0.75016   1.00
C4       0.74988    1.02085    0.74984   1.00
C3a      0.78466    0.95746    0.75868   1.00
C3       0.74771    1.04232    0.78490   1.00
C3       0.71592    0.95768    0.74212   1.00
C3a      0.75170    1.04254    0.71431   1.00
C2       0.74994    0.89488    0.75005   1.00
C2       0.74993    1.10512    0.75005   1.00
C3       0.78404    0.91595    0.75841   1.00
C3       0.74785    1.08363    0.78496   1.00
C3       0.71591    0.91637    0.74196   1.00
C3       0.75177    1.08405    0.71498   1.00
C5       0.82287    0.97772    0.76758   1.00
H1       0.74629    1.02691    0.81246   1.00
H1       0.81041    0.89979    0.76471   1.00
H1       0.74637    1.09901    0.81250   1.00
H1       0.68912    0.90099    0.73542   1.00
H1       0.75336    1.10021    0.68791   1.00
C5       0.75421    1.02228    0.67515   1.00
H1       0.68913    0.97309    0.73552   1.00
H2       0.76645    1.04256    0.65304   1.00
H2       0.77480    0.99731    0.67677   1.00
H2       0.84758    0.95744    0.76225   1.00
H2       0.82727    1.00269    0.74740   1.00
N1       0.71579    1.00857    0.66251   1.00
C6       0.68516    1.03073    0.65300   1.00
C6       0.70499    0.97154    0.65721   1.00
C6       0.65422    1.00759    0.64198   1.00
C6       0.66684    0.96995    0.64465   1.00
H3       0.68503    1.06197    0.65429   1.00
H3       0.72358    0.94700    0.66244   1.00
H3       0.62568    1.01713    0.63298   1.00
H3       0.65008    0.94425    0.63819   1.00
N1       0.82388    0.99143    0.80801   1.00
C6       0.82584    1.02846    0.81989   1.00
C6       0.82414    0.96927    0.84009   1.00
C6       0.82685    1.03005    0.86004   1.00
C6       0.82576    0.99241    0.87289   1.00
H3       0.82620    1.05300    0.80058   1.00
H3       0.82288    0.93803    0.83984   1.00
H3       0.82820    1.05575    0.87795   1.00
H3       0.82614    0.98287    0.90282   1.00
C4       0.52085    0.75016    0.74988   1.00
C4       0.47915    0.74984    0.75012   1.00
C3a      0.54254    0.75868    0.71534   1.00
C3       0.45768    0.78490    0.75229   1.00
C3       0.54232    0.74212    0.78408   1.00
C3a      0.45746    0.71431    0.74830   1.00
C2       0.60512    0.75005    0.75006   1.00
C2       0.39488    0.75005    0.75007   1.00
C3       0.58405    0.75841    0.71596   1.00
C3       0.41637    0.78496    0.75215   1.00
C3       0.58363    0.74196    0.78409   1.00
C3       0.41595    0.71498    0.74823   1.00
C5       0.52228    0.76758    0.67713   1.00
H1       0.47309    0.81246    0.75371   1.00
H1       0.60021    0.76471    0.68959   1.00
H1       0.40099    0.81250    0.75363   1.00
H1       0.59901    0.73542    0.81088   1.00
H1       0.39979    0.68791    0.74664   1.00
C5       0.47772    0.67515    0.74579   1.00
H1       0.52691    0.73552    0.81087   1.00
H2       0.45744    0.65304    0.73355   1.00
H2       0.50269    0.67677    0.72520   1.00
H2       0.54256    0.76225    0.65242   1.00
H2       0.49731    0.74740    0.67273   1.00
N1       0.49143    0.66251    0.78421   1.00
C6       0.46927    0.65300    0.81484   1.00
C6       0.52846    0.65721    0.79501   1.00
C6       0.49241    0.64198    0.84578   1.00
C6       0.53005    0.64465    0.83316   1.00
H3       0.43803    0.65429    0.81497   1.00
H3       0.55300    0.66244    0.77642   1.00
H3       0.48287    0.63298    0.87432   1.00
H3       0.55575    0.63819    0.84992   1.00
N1       0.50857    0.80801    0.67612   1.00
C6       0.47154    0.81989    0.67416   1.00
C6       0.53073    0.84009    0.67586   1.00
C6       0.46995    0.86004    0.67315   1.00
C6       0.50759    0.87289    0.67424   1.00
H3       0.44700    0.80058    0.67380   1.00
H3       0.56197    0.83984    0.67712   1.00
H3       0.44425    0.87795    0.67180   1.00
H3       0.51713    0.90282    0.67386   1.00
C4       0.97915    0.75016    0.75012   1.00
C4       1.02085    0.74984    0.74988   1.00
C3a      0.95746    0.75868    0.78466   1.00
C3       1.04232    0.78490    0.74771   1.00
C3       0.95768    0.74212    0.71592   1.00
C3a      1.04254    0.71431    0.75170   1.00
C2       0.89488    0.75005    0.74994   1.00
C2       1.10512    0.75005    0.74993   1.00
C3       0.91595    0.75841    0.78404   1.00
C3       1.08363    0.78496    0.74785   1.00
C3       0.91637    0.74196    0.71591   1.00
C3       1.08405    0.71498    0.75177   1.00
C5       0.97772    0.76758    0.82287   1.00
H1       1.02691    0.81246    0.74629   1.00
H1       0.89979    0.76471    0.81041   1.00
H1       1.09901    0.81250    0.74637   1.00
H1       0.90099    0.73542    0.68912   1.00
H1       1.10021    0.68791    0.75336   1.00
C5       1.02228    0.67515    0.75421   1.00
H1       0.97309    0.73552    0.68913   1.00
H2       1.04256    0.65304    0.76645   1.00
H2       0.99731    0.67677    0.77480   1.00
H2       0.95744    0.76225    0.84758   1.00
H2       1.00269    0.74740    0.82727   1.00
N1       1.00857    0.66251    0.71579   1.00
C6       1.03073    0.65300    0.68516   1.00
C6       0.97154    0.65721    0.70499   1.00
C6       1.00759    0.64198    0.65422   1.00
C6       0.96995    0.64465    0.66684   1.00
H3       1.06197    0.65429    0.68503   1.00
H3       0.94700    0.66244    0.72358   1.00
H3       1.01713    0.63298    0.62568   1.00
H3       0.94425    0.63819    0.65008   1.00
N1       0.99143    0.80801    0.82388   1.00
C6       1.02846    0.81989    0.82584   1.00
C6       0.96927    0.84009    0.82414   1.00
C6       1.03005    0.86004    0.82685   1.00
C6       0.99241    0.87289    0.82576   1.00
H3       1.05300    0.80058    0.82620   1.00
H3       0.93803    0.83984    0.82288   1.00
H3       1.05575    0.87795    0.82820   1.00
H3       0.98287    0.90282    0.82614   1.00
C4       0.74988    0.52085    0.75016   1.00
C4       0.75012    0.47915    0.74984   1.00
C3a      0.71534    0.54254    0.75868   1.00
C3       0.75229    0.45768    0.78490   1.00
C3       0.78408    0.54232    0.74212   1.00
C3a      0.74830    0.45746    0.71431   1.00
C2       0.75006    0.60512    0.75005   1.00
C2       0.75007    0.39488    0.75005   1.00
C3       0.71596    0.58405    0.75841   1.00
C3       0.75215    0.41637    0.78496   1.00
C3       0.78409    0.58363    0.74196   1.00
C3       0.74823    0.41595    0.71498   1.00
C5       0.67713    0.52228    0.76758   1.00
H1       0.75371    0.47309    0.81246   1.00
H1       0.68959    0.60021    0.76471   1.00
H1       0.75363    0.40099    0.81250   1.00
H1       0.81088    0.59901    0.73542   1.00
H1       0.74664    0.39979    0.68791   1.00
C5       0.74579    0.47772    0.67515   1.00
H1       0.81087    0.52691    0.73552   1.00
H2       0.73355    0.45744    0.65304   1.00
H2       0.72520    0.50269    0.67677   1.00
H2       0.65242    0.54256    0.76225   1.00
H2       0.67273    0.49731    0.74740   1.00
N1       0.78421    0.49143    0.66251   1.00
C6       0.81484    0.46927    0.65300   1.00
C6       0.79501    0.52846    0.65721   1.00
C6       0.84578    0.49241    0.64198   1.00
C6       0.83316    0.53005    0.64465   1.00
H3       0.81497    0.43803    0.65429   1.00
H3       0.77642    0.55300    0.66244   1.00
H3       0.87432    0.48287    0.63298   1.00
H3       0.84992    0.55575    0.63819   1.00
N1       0.67612    0.50857    0.80801   1.00
C6       0.67416    0.47154    0.81989   1.00
C6       0.67586    0.53073    0.84009   1.00
C6       0.67315    0.46995    0.86004   1.00
C6       0.67424    0.50759    0.87289   1.00
H3       0.67380    0.44700    0.80058   1.00
H3       0.67712    0.56197    0.83984   1.00
H3       0.67180    0.44425    0.87795   1.00
H3       0.67386    0.51713    0.90282   1.00
C4       0.75016    0.74988    0.52085   1.00
C4       0.74984    0.75012    0.47915   1.00
C3a      0.75868    0.71534    0.54254   1.00
C3       0.78490    0.75229    0.45768   1.00
C3       0.74212    0.78408    0.54232   1.00
C3a      0.71431    0.74830    0.45746   1.00
C2       0.75005    0.75006    0.60512   1.00
C2       0.75005    0.75007    0.39488   1.00
C3       0.75841    0.71596    0.58405   1.00
C3       0.78496    0.75215    0.41637   1.00
C3       0.74196    0.78409    0.58363   1.00
C3       0.71498    0.74823    0.41595   1.00
C5       0.76758    0.67713    0.52228   1.00
H1       0.81246    0.75371    0.47309   1.00
H1       0.76471    0.68959    0.60021   1.00
H1       0.81250    0.75363    0.40099   1.00
H1       0.73542    0.81088    0.59901   1.00
H1       0.68791    0.74664    0.39979   1.00
C5       0.67515    0.74579    0.47772   1.00
H1       0.73552    0.81087    0.52691   1.00
H2       0.65304    0.73355    0.45744   1.00
H2       0.67677    0.72520    0.50269   1.00
H2       0.76225    0.65242    0.54256   1.00
H2       0.74740    0.67273    0.49731   1.00
N1       0.66251    0.78421    0.49143   1.00
C6       0.65300    0.81484    0.46927   1.00
C6       0.65721    0.79501    0.52846   1.00
C6       0.64198    0.84578    0.49241   1.00
C6       0.64465    0.83316    0.53005   1.00
H3       0.65429    0.81497    0.43803   1.00
H3       0.66244    0.77642    0.55300   1.00
H3       0.63298    0.87432    0.48287   1.00
H3       0.63819    0.84992    0.55575   1.00
N1       0.80801    0.67612    0.50857   1.00
C6       0.81989    0.67416    0.47154   1.00
C6       0.84009    0.67586    0.53073   1.00
C6       0.86004    0.67315    0.46995   1.00
C6       0.87289    0.67424    0.50759   1.00
H3       0.80058    0.67380    0.44700   1.00
H3       0.83984    0.67712    0.56197   1.00
H3       0.87795    0.67180    0.44425   1.00
H3       0.90282    0.67386    0.51713   1.00
C4       0.25016    0.25012    0.97915   1.00
C4       0.24984    0.24988    1.02085   1.00
C3a      0.25868    0.28466    0.95746   1.00
C3       0.28490    0.24771    1.04232   1.00
C3       0.24212    0.21592    0.95768   1.00
C3a      0.21431    0.25170    1.04254   1.00
C2       0.25005    0.24994    0.89488   1.00
C2       0.25005    0.24993    1.10512   1.00
C3       0.25841    0.28404    0.91595   1.00
C3       0.28496    0.24785    1.08363   1.00
C3       0.24196    0.21591    0.91637   1.00
C3       0.21498    0.25177    1.08405   1.00
C5       0.26758    0.32287    0.97772   1.00
H1       0.31246    0.24629    1.02691   1.00
H1       0.26471    0.31041    0.89979   1.00
H1       0.31250    0.24637    1.09901   1.00
H1       0.23542    0.18912    0.90099   1.00
H1       0.18791    0.25336    1.10021   1.00
C5       0.17515    0.25421    1.02228   1.00
H1       0.23552    0.18913    0.97309   1.00
H2       0.15304    0.26645    1.04256   1.00
H2       0.17677    0.27480    0.99731   1.00
H2       0.26225    0.34758    0.95744   1.00
H2       0.24740    0.32727    1.00269   1.00
N1       0.16251    0.21579    1.00857   1.00
C6       0.15300    0.18516    1.03073   1.00
C6       0.15721    0.20499    0.97154   1.00
C6       0.14198    0.15422    1.00759   1.00
C6       0.14465    0.16684    0.96995   1.00
H3       0.15429    0.18503    1.06197   1.00
H3       0.16244    0.22358    0.94700   1.00
H3       0.13298    0.12568    1.01713   1.00
H3       0.13819    0.15008    0.94425   1.00
N1       0.30801    0.32388    0.99143   1.00
C6       0.31989    0.32584    1.02846   1.00
C6       0.34009    0.32414    0.96927   1.00
C6       0.36004    0.32685    1.03005   1.00
C6       0.37289    0.32576    0.99241   1.00
H3       0.30058    0.32620    1.05300   1.00
H3       0.33984    0.32288    0.93803   1.00
H3       0.37795    0.32820    1.05575   1.00
H3       0.40282    0.32614    0.98287   1.00
C4       0.25012    0.47915    0.75016   1.00
C4       0.24988    0.52085    0.74984   1.00
C3a      0.28466    0.45746    0.75868   1.00
C3       0.24771    0.54232    0.78490   1.00
C3       0.21592    0.45768    0.74212   1.00
C3a      0.25170    0.54254    0.71431   1.00
C2       0.24994    0.39488    0.75005   1.00
C2       0.24993    0.60512    0.75005   1.00
C3       0.28404    0.41595    0.75841   1.00
C3       0.24785    0.58363    0.78496   1.00
C3       0.21591    0.41637    0.74196   1.00
C3       0.25177    0.58405    0.71498   1.00
C5       0.32287    0.47772    0.76758   1.00
H1       0.24629    0.52691    0.81246   1.00
H1       0.31041    0.39979    0.76471   1.00
H1       0.24637    0.59901    0.81250   1.00
H1       0.18912    0.40099    0.73542   1.00
H1       0.25336    0.60021    0.68791   1.00
C5       0.25421    0.52228    0.67515   1.00
H1       0.18913    0.47309    0.73552   1.00
H2       0.26645    0.54256    0.65304   1.00
H2       0.27480    0.49731    0.67677   1.00
H2       0.34758    0.45744    0.76225   1.00
H2       0.32727    0.50269    0.74740   1.00
N1       0.21579    0.50857    0.66251   1.00
C6       0.18516    0.53073    0.65300   1.00
C6       0.20499    0.47154    0.65721   1.00
C6       0.15422    0.50759    0.64198   1.00
C6       0.16684    0.46995    0.64465   1.00
H3       0.18503    0.56197    0.65429   1.00
H3       0.22358    0.44700    0.66244   1.00
H3       0.12568    0.51713    0.63298   1.00
H3       0.15008    0.44425    0.63819   1.00
N1       0.32388    0.49143    0.80801   1.00
C6       0.32584    0.52846    0.81989   1.00
C6       0.32414    0.46927    0.84009   1.00
C6       0.32685    0.53005    0.86004   1.00
C6       0.32576    0.49241    0.87289   1.00
H3       0.32620    0.55300    0.80058   1.00
H3       0.32288    0.43803    0.83984   1.00
H3       0.32820    0.55575    0.87795   1.00
H3       0.32614    0.48287    0.90282   1.00
C4       0.02085    0.25016    0.74988   1.00
C4       -0.02085   0.24984    0.75012   1.00
C3a      0.04254    0.25868    0.71534   1.00
C3       -0.04232   0.28490    0.75229   1.00
C3       0.04232    0.24212    0.78408   1.00
C3a      -0.04254   0.21431    0.74830   1.00
C2       0.10512    0.25005    0.75006   1.00
C2       -0.10512   0.25005    0.75007   1.00
C3       0.08405    0.25841    0.71596   1.00
C3       -0.08363   0.28496    0.75215   1.00
C3       0.08363    0.24196    0.78409   1.00
C3       -0.08405   0.21498    0.74823   1.00
C5       0.02228    0.26758    0.67713   1.00
H1       -0.02691   0.31246    0.75371   1.00
H1       0.10021    0.26471    0.68959   1.00
H1       -0.09901   0.31250    0.75363   1.00
H1       0.09901    0.23542    0.81088   1.00
H1       -0.10021   0.18791    0.74664   1.00
C5       -0.02228   0.17515    0.74579   1.00
H1       0.02691    0.23552    0.81087   1.00
H2       -0.04256   0.15304    0.73355   1.00
H2       0.00269    0.17677    0.72520   1.00
H2       0.04256    0.26225    0.65242   1.00
H2       -0.00269   0.24740    0.67273   1.00
N1       -0.00857   0.16251    0.78421   1.00
C6       -0.03073   0.15300    0.81484   1.00
C6       0.02846    0.15721    0.79501   1.00
C6       -0.00759   0.14198    0.84578   1.00
C6       0.03005    0.14465    0.83316   1.00
H3       -0.06197   0.15429    0.81497   1.00
H3       0.05300    0.16244    0.77642   1.00
H3       -0.01713   0.13298    0.87432   1.00
H3       0.05575    0.13819    0.84992   1.00
N1       0.00857    0.30801    0.67612   1.00
C6       -0.02846   0.31989    0.67416   1.00
C6       0.03073    0.34009    0.67586   1.00
C6       -0.03005   0.36004    0.67315   1.00
C6       0.00759    0.37289    0.67424   1.00
H3       -0.05300   0.30058    0.67380   1.00
H3       0.06197    0.33984    0.67712   1.00
H3       -0.05575   0.37795    0.67180   1.00
H3       0.01713    0.40282    0.67386   1.00
C4       0.47915    0.25016    0.75012   1.00
C4       0.52085    0.24984    0.74988   1.00
C3a      0.45746    0.25868    0.78466   1.00
C3       0.54232    0.28490    0.74771   1.00
C3       0.45768    0.24212    0.71592   1.00
C3a      0.54254    0.21431    0.75170   1.00
C2       0.39488    0.25005    0.74994   1.00
C2       0.60512    0.25005    0.74993   1.00
C3       0.41595    0.25841    0.78404   1.00
C3       0.58363    0.28496    0.74785   1.00
C3       0.41637    0.24196    0.71591   1.00
C3       0.58405    0.21498    0.75177   1.00
C5       0.47772    0.26758    0.82287   1.00
H1       0.52691    0.31246    0.74629   1.00
H1       0.39979    0.26471    0.81041   1.00
H1       0.59901    0.31250    0.74637   1.00
H1       0.40099    0.23542    0.68912   1.00
H1       0.60021    0.18791    0.75336   1.00
C5       0.52228    0.17515    0.75421   1.00
H1       0.47309    0.23552    0.68913   1.00
H2       0.54256    0.15304    0.76645   1.00
H2       0.49731    0.17677    0.77480   1.00
H2       0.45744    0.26225    0.84758   1.00
H2       0.50269    0.24740    0.82727   1.00
N1       0.50857    0.16251    0.71579   1.00
C6       0.53073    0.15300    0.68516   1.00
C6       0.47154    0.15721    0.70499   1.00
C6       0.50759    0.14198    0.65422   1.00
C6       0.46995    0.14465    0.66684   1.00
H3       0.56197    0.15429    0.68503   1.00
H3       0.44700    0.16244    0.72358   1.00
H3       0.51713    0.13298    0.62568   1.00
H3       0.44425    0.13819    0.65008   1.00
N1       0.49143    0.30801    0.82388   1.00
C6       0.52846    0.31989    0.82584   1.00
C6       0.46927    0.34009    0.82414   1.00
C6       0.53005    0.36004    0.82685   1.00
C6       0.49241    0.37289    0.82576   1.00
H3       0.55300    0.30058    0.82620   1.00
H3       0.43803    0.33984    0.82288   1.00
H3       0.55575    0.37795    0.82820   1.00
H3       0.48287    0.40282    0.82614   1.00
C4       0.24988    0.02085    0.75016   1.00
C4       0.25012    -0.02085   0.74984   1.00
C3a      0.21534    0.04254    0.75868   1.00
C3       0.25229    -0.04232   0.78490   1.00
C3       0.28408    0.04232    0.74212   1.00
C3a      0.24830    -0.04254   0.71431   1.00
C2       0.25006    0.10512    0.75005   1.00
C2       0.25007    -0.10512   0.75005   1.00
C3       0.21596    0.08405    0.75841   1.00
C3       0.25215    -0.08363   0.78496   1.00
C3       0.28409    0.08363    0.74196   1.00
C3       0.24823    -0.08405   0.71498   1.00
C5       0.17713    0.02228    0.76758   1.00
H1       0.25371    -0.02691   0.81246   1.00
H1       0.18959    0.10021    0.76471   1.00
H1       0.25363    -0.09901   0.81250   1.00
H1       0.31088    0.09901    0.73542   1.00
H1       0.24664    -0.10021   0.68791   1.00
C5       0.24579    -0.02228   0.67515   1.00
H1       0.31087    0.02691    0.73552   1.00
H2       0.23355    -0.04256   0.65304   1.00
H2       0.22520    0.00269    0.67677   1.00
H2       0.15242    0.04256    0.76225   1.00
H2       0.17273    -0.00269   0.74740   1.00
N1       0.28421    -0.00857   0.66251   1.00
C6       0.31484    -0.03073   0.65300   1.00
C6       0.29501    0.02846    0.65721   1.00
C6       0.34578    -0.00759   0.64198   1.00
C6       0.33316    0.03005    0.64465   1.00
H3       0.31497    -0.06197   0.65429   1.00
H3       0.27642    0.05300    0.66244   1.00
H3       0.37432    -0.01713   0.63298   1.00
H3       0.34992    0.05575    0.63819   1.00
N1       0.17612    0.00857    0.80801   1.00
C6       0.17416    -0.02846   0.81989   1.00
C6       0.17586    0.03073    0.84009   1.00
C6       0.17315    -0.03005   0.86004   1.00
C6       0.17424    0.00759    0.87289   1.00
H3       0.17380    -0.05300   0.80058   1.00
H3       0.17712    0.06197    0.83984   1.00
H3       0.17180    -0.05575   0.87795   1.00
H3       0.17386    0.01713    0.90282   1.00
C4       0.25016    0.24988    0.52085   1.00
C4       0.24984    0.25012    0.47915   1.00
C3a      0.25868    0.21534    0.54254   1.00
C3       0.28490    0.25229    0.45768   1.00
C3       0.24212    0.28408    0.54232   1.00
C3a      0.21431    0.24830    0.45746   1.00
C2       0.25005    0.25006    0.60512   1.00
C2       0.25005    0.25007    0.39488   1.00
C3       0.25841    0.21596    0.58405   1.00
C3       0.28496    0.25215    0.41637   1.00
C3       0.24196    0.28409    0.58363   1.00
C3       0.21498    0.24823    0.41595   1.00
C5       0.26758    0.17713    0.52228   1.00
H1       0.31246    0.25371    0.47309   1.00
H1       0.26471    0.18959    0.60021   1.00
H1       0.31250    0.25363    0.40099   1.00
H1       0.23542    0.31088    0.59901   1.00
H1       0.18791    0.24664    0.39979   1.00
C5       0.17515    0.24579    0.47772   1.00
H1       0.23552    0.31087    0.52691   1.00
H2       0.15304    0.23355    0.45744   1.00
H2       0.17677    0.22520    0.50269   1.00
H2       0.26225    0.15242    0.54256   1.00
H2       0.24740    0.17273    0.49731   1.00
N1       0.16251    0.28421    0.49143   1.00
C6       0.15300    0.31484    0.46927   1.00
C6       0.15721    0.29501    0.52846   1.00
C6       0.14198    0.34578    0.49241   1.00
C6       0.14465    0.33316    0.53005   1.00
H3       0.15429    0.31497    0.43803   1.00
H3       0.16244    0.27642    0.55300   1.00
H3       0.13298    0.37432    0.48287   1.00
H3       0.13819    0.34992    0.55575   1.00
N1       0.30801    0.17612    0.50857   1.00
C6       0.31989    0.17416    0.47154   1.00
C6       0.34009    0.17586    0.53073   1.00
C6       0.36004    0.17315    0.46995   1.00
C6       0.37289    0.17424    0.50759   1.00
H3       0.30058    0.17380    0.44700   1.00
H3       0.33984    0.17712    0.56197   1.00
H3       0.37795    0.17180    0.44425   1.00
H3       0.40282    0.17386    0.51713   1.00
C4       0.25016    0.75012    0.47915   1.00
C4       0.24984    0.74988    0.52085   1.00
C3a      0.25868    0.78466    0.45746   1.00
C3       0.28490    0.74771    0.54232   1.00
C3       0.24212    0.71592    0.45768   1.00
C3a      0.21431    0.75170    0.54254   1.00
C2       0.25005    0.74994    0.39488   1.00
C2       0.25005    0.74993    0.60512   1.00
C3       0.25841    0.78404    0.41595   1.00
C3       0.28496    0.74785    0.58363   1.00
C3       0.24196    0.71591    0.41637   1.00
C3       0.21498    0.75177    0.58405   1.00
C5       0.26758    0.82287    0.47772   1.00
H1       0.31246    0.74629    0.52691   1.00
H1       0.26471    0.81041    0.39979   1.00
H1       0.31250    0.74637    0.59901   1.00
H1       0.23542    0.68912    0.40099   1.00
H1       0.18791    0.75336    0.60021   1.00
C5       0.17515    0.75421    0.52228   1.00
H1       0.23552    0.68913    0.47309   1.00
H2       0.15304    0.76645    0.54256   1.00
H2       0.17677    0.77480    0.49731   1.00
H2       0.26225    0.84758    0.45744   1.00
H2       0.24740    0.82727    0.50269   1.00
N1       0.16251    0.71579    0.50857   1.00
C6       0.15300    0.68516    0.53073   1.00
C6       0.15721    0.70499    0.47154   1.00
C6       0.14198    0.65422    0.50759   1.00
C6       0.14465    0.66684    0.46995   1.00
H3       0.15429    0.68503    0.56197   1.00
H3       0.16244    0.72358    0.44700   1.00
H3       0.13298    0.62568    0.51713   1.00
H3       0.13819    0.65008    0.44425   1.00
N1       0.30801    0.82388    0.49143   1.00
C6       0.31989    0.82584    0.52846   1.00
C6       0.34009    0.82414    0.46927   1.00
C6       0.36004    0.82685    0.53005   1.00
C6       0.37289    0.82576    0.49241   1.00
H3       0.30058    0.82620    0.55300   1.00
H3       0.33984    0.82288    0.43803   1.00
H3       0.37795    0.82820    0.55575   1.00
H3       0.40282    0.82614    0.48287   1.00
C4       0.25012    0.97915    0.25016   1.00
C4       0.24988    1.02085    0.24984   1.00
C3a      0.28466    0.95746    0.25868   1.00
C3       0.24771    1.04232    0.28490   1.00
C3       0.21592    0.95768    0.24212   1.00
C3a      0.25170    1.04254    0.21431   1.00
C2       0.24994    0.89488    0.25005   1.00
C2       0.24993    1.10512    0.25005   1.00
C3       0.28404    0.91595    0.25841   1.00
C3       0.24785    1.08363    0.28496   1.00
C3       0.21591    0.91637    0.24196   1.00
C3       0.25177    1.08405    0.21498   1.00
C5       0.32287    0.97772    0.26758   1.00
H1       0.24629    1.02691    0.31246   1.00
H1       0.31041    0.89979    0.26471   1.00
H1       0.24637    1.09901    0.31250   1.00
H1       0.18912    0.90099    0.23542   1.00
H1       0.25336    1.10021    0.18791   1.00
C5       0.25421    1.02228    0.17515   1.00
H1       0.18913    0.97309    0.23552   1.00
H2       0.26645    1.04256    0.15304   1.00
H2       0.27480    0.99731    0.17677   1.00
H2       0.34758    0.95744    0.26225   1.00
H2       0.32727    1.00269    0.24740   1.00
N1       0.21579    1.00857    0.16251   1.00
C6       0.18516    1.03073    0.15300   1.00
C6       0.20499    0.97154    0.15721   1.00
C6       0.15422    1.00759    0.14198   1.00
C6       0.16684    0.96995    0.14465   1.00
H3       0.18503    1.06197    0.15429   1.00
H3       0.22358    0.94700    0.16244   1.00
H3       0.12568    1.01713    0.13298   1.00
H3       0.15008    0.94425    0.13819   1.00
N1       0.32388    0.99143    0.30801   1.00
C6       0.32584    1.02846    0.31989   1.00
C6       0.32414    0.96927    0.34009   1.00
C6       0.32685    1.03005    0.36004   1.00
C6       0.32576    0.99241    0.37289   1.00
H3       0.32620    1.05300    0.30058   1.00
H3       0.32288    0.93803    0.33984   1.00
H3       0.32820    1.05575    0.37795   1.00
H3       0.32614    0.98287    0.40282   1.00
C4       0.02085    0.75016    0.24988   1.00
C4       -0.02085   0.74984    0.25012   1.00
C3a      0.04254    0.75868    0.21534   1.00
C3       -0.04232   0.78490    0.25229   1.00
C3       0.04232    0.74212    0.28408   1.00
C3a      -0.04254   0.71431    0.24830   1.00
C2       0.10512    0.75005    0.25006   1.00
C2       -0.10512   0.75005    0.25007   1.00
C3       0.08405    0.75841    0.21596   1.00
C3       -0.08363   0.78496    0.25215   1.00
C3       0.08363    0.74196    0.28409   1.00
C3       -0.08405   0.71498    0.24823   1.00
C5       0.02228    0.76758    0.17713   1.00
H1       -0.02691   0.81246    0.25371   1.00
H1       0.10021    0.76471    0.18959   1.00
H1       -0.09901   0.81250    0.25363   1.00
H1       0.09901    0.73542    0.31088   1.00
H1       -0.10021   0.68791    0.24664   1.00
C5       -0.02228   0.67515    0.24579   1.00
H1       0.02691    0.73552    0.31087   1.00
H2       -0.04256   0.65304    0.23355   1.00
H2       0.00269    0.67677    0.22520   1.00
H2       0.04256    0.76225    0.15242   1.00
H2       -0.00269   0.74740    0.17273   1.00
N1       -0.00857   0.66251    0.28421   1.00
C6       -0.03073   0.65300    0.31484   1.00
C6       0.02846    0.65721    0.29501   1.00
C6       -0.00759   0.64198    0.34578   1.00
C6       0.03005    0.64465    0.33316   1.00
H3       -0.06197   0.65429    0.31497   1.00
H3       0.05300    0.66244    0.27642   1.00
H3       -0.01713   0.63298    0.37432   1.00
H3       0.05575    0.63819    0.34992   1.00
N1       0.00857    0.80801    0.17612   1.00
C6       -0.02846   0.81989    0.17416   1.00
C6       0.03073    0.84009    0.17586   1.00
C6       -0.03005   0.86004    0.17315   1.00
C6       0.00759    0.87289    0.17424   1.00
H3       -0.05300   0.80058    0.17380   1.00
H3       0.06197    0.83984    0.17712   1.00
H3       -0.05575   0.87795    0.17180   1.00
H3       0.01713    0.90282    0.17386   1.00
C4       0.47915    0.75016    0.25012   1.00
C4       0.52085    0.74984    0.24988   1.00
C3a      0.45746    0.75868    0.28466   1.00
C3       0.54232    0.78490    0.24771   1.00
C3       0.45768    0.74212    0.21592   1.00
C3a      0.54254    0.71431    0.25170   1.00
C2       0.39488    0.75005    0.24994   1.00
C2       0.60512    0.75005    0.24993   1.00
C3       0.41595    0.75841    0.28404   1.00
C3       0.58363    0.78496    0.24785   1.00
C3       0.41637    0.74196    0.21591   1.00
C3       0.58405    0.71498    0.25177   1.00
C5       0.47772    0.76758    0.32287   1.00
H1       0.52691    0.81246    0.24629   1.00
H1       0.39979    0.76471    0.31041   1.00
H1       0.59901    0.81250    0.24637   1.00
H1       0.40099    0.73542    0.18912   1.00
H1       0.60021    0.68791    0.25336   1.00
C5       0.52228    0.67515    0.25421   1.00
H1       0.47309    0.73552    0.18913   1.00
H2       0.54256    0.65304    0.26645   1.00
H2       0.49731    0.67677    0.27480   1.00
H2       0.45744    0.76225    0.34758   1.00
H2       0.50269    0.74740    0.32727   1.00
N1       0.50857    0.66251    0.21579   1.00
C6       0.53073    0.65300    0.18516   1.00
C6       0.47154    0.65721    0.20499   1.00
C6       0.50759    0.64198    0.15422   1.00
C6       0.46995    0.64465    0.16684   1.00
H3       0.56197    0.65429    0.18503   1.00
H3       0.44700    0.66244    0.22358   1.00
H3       0.51713    0.63298    0.12568   1.00
H3       0.44425    0.63819    0.15008   1.00
N1       0.49143    0.80801    0.32388   1.00
C6       0.52846    0.81989    0.32584   1.00
C6       0.46927    0.84009    0.32414   1.00
C6       0.53005    0.86004    0.32685   1.00
C6       0.49241    0.87289    0.32576   1.00
H3       0.55300    0.80058    0.32620   1.00
H3       0.43803    0.83984    0.32288   1.00
H3       0.55575    0.87795    0.32820   1.00
H3       0.48287    0.90282    0.32614   1.00
C4       0.24988    0.52085    0.25016   1.00
C4       0.25012    0.47915    0.24984   1.00
C3a      0.21534    0.54254    0.25868   1.00
C3       0.25229    0.45768    0.28490   1.00
C3       0.28408    0.54232    0.24212   1.00
C3a      0.24830    0.45746    0.21431   1.00
C2       0.25006    0.60512    0.25005   1.00
C2       0.25007    0.39488    0.25005   1.00
C3       0.21596    0.58405    0.25841   1.00
C3       0.25215    0.41637    0.28496   1.00
C3       0.28409    0.58363    0.24196   1.00
C3       0.24823    0.41595    0.21498   1.00
C5       0.17713    0.52228    0.26758   1.00
H1       0.25371    0.47309    0.31246   1.00
H1       0.18959    0.60021    0.26471   1.00
H1       0.25363    0.40099    0.31250   1.00
H1       0.31088    0.59901    0.23542   1.00
H1       0.24664    0.39979    0.18791   1.00
C5       0.24579    0.47772    0.17515   1.00
H1       0.31087    0.52691    0.23552   1.00
H2       0.23355    0.45744    0.15304   1.00
H2       0.22520    0.50269    0.17677   1.00
H2       0.15242    0.54256    0.26225   1.00
H2       0.17273    0.49731    0.24740   1.00
N1       0.28421    0.49143    0.16251   1.00
C6       0.31484    0.46927    0.15300   1.00
C6       0.29501    0.52846    0.15721   1.00
C6       0.34578    0.49241    0.14198   1.00
C6       0.33316    0.53005    0.14465   1.00
H3       0.31497    0.43803    0.15429   1.00
H3       0.27642    0.55300    0.16244   1.00
H3       0.37432    0.48287    0.13298   1.00
H3       0.34992    0.55575    0.13819   1.00
N1       0.17612    0.50857    0.30801   1.00
C6       0.17416    0.47154    0.31989   1.00
C6       0.17586    0.53073    0.34009   1.00
C6       0.17315    0.46995    0.36004   1.00
C6       0.17424    0.50759    0.37289   1.00
H3       0.17380    0.44700    0.30058   1.00
H3       0.17712    0.56197    0.33984   1.00
H3       0.17180    0.44425    0.37795   1.00
H3       0.17386    0.51713    0.40282   1.00
C4       0.25016    0.74988    0.02085   1.00
C4       0.24984    0.75012    -0.02085   1.00
C3a      0.25868    0.71534    0.04254   1.00
C3       0.28490    0.75229    -0.04232   1.00
C3       0.24212    0.78408    0.04232   1.00
C3a      0.21431    0.74830    -0.04254   1.00
C2       0.25005    0.75006    0.10512   1.00
C2       0.25005    0.75007    -0.10512   1.00
C3       0.25841    0.71596    0.08405   1.00
C3       0.28496    0.75215    -0.08363   1.00
C3       0.24196    0.78409    0.08363   1.00
C3       0.21498    0.74823    -0.08405   1.00
C5       0.26758    0.67713    0.02228   1.00
H1       0.31246    0.75371    -0.02691   1.00
H1       0.26471    0.68959    0.10021   1.00
H1       0.31250    0.75363    -0.09901   1.00
H1       0.23542    0.81088    0.09901   1.00
H1       0.18791    0.74664    -0.10021   1.00
C5       0.17515    0.74579    -0.02228   1.00
H1       0.23552    0.81087    0.02691   1.00
H2       0.15304    0.73355    -0.04256   1.00
H2       0.17677    0.72520    0.00269   1.00
H2       0.26225    0.65242    0.04256   1.00
H2       0.24740    0.67273    -0.00269   1.00
N1       0.16251    0.78421    -0.00857   1.00
C6       0.15300    0.81484    -0.03073   1.00
C6       0.15721    0.79501    0.02846   1.00
C6       0.14198    0.84578    -0.00759   1.00
C6       0.14465    0.83316    0.03005   1.00
H3       0.15429    0.81497    -0.06197   1.00
H3       0.16244    0.77642    0.05300   1.00
H3       0.13298    0.87432    -0.01713   1.00
H3       0.13819    0.84992    0.05575   1.00
N1       0.30801    0.67612    0.00857   1.00
C6       0.31989    0.67416    -0.02846   1.00
C6       0.34009    0.67586    0.03073   1.00
C6       0.36004    0.67315    -0.03005   1.00
C6       0.37289    0.67424    0.00759   1.00
H3       0.30058    0.67380    -0.05300   1.00
H3       0.33984    0.67712    0.06197   1.00
H3       0.37795    0.67180    -0.05575   1.00
H3       0.40282    0.67386    0.01713   1.00
C4       0.75016    0.25012    0.47915   1.00
C4       0.74984    0.24988    0.52085   1.00
C3a      0.75868    0.28466    0.45746   1.00
C3       0.78490    0.24771    0.54232   1.00
C3       0.74212    0.21592    0.45768   1.00
C3a      0.71431    0.25170    0.54254   1.00
C2       0.75005    0.24994    0.39488   1.00
C2       0.75005    0.24993    0.60512   1.00
C3       0.75841    0.28404    0.41595   1.00
C3       0.78496    0.24785    0.58363   1.00
C3       0.74196    0.21591    0.41637   1.00
C3       0.71498    0.25177    0.58405   1.00
C5       0.76758    0.32287    0.47772   1.00
H1       0.81246    0.24629    0.52691   1.00
H1       0.76471    0.31041    0.39979   1.00
H1       0.81250    0.24637    0.59901   1.00
H1       0.73542    0.18912    0.40099   1.00
H1       0.68791    0.25336    0.60021   1.00
C5       0.67515    0.25421    0.52228   1.00
H1       0.73552    0.18913    0.47309   1.00
H2       0.65304    0.26645    0.54256   1.00
H2       0.67677    0.27480    0.49731   1.00
H2       0.76225    0.34758    0.45744   1.00
H2       0.74740    0.32727    0.50269   1.00
N1       0.66251    0.21579    0.50857   1.00
C6       0.65300    0.18516    0.53073   1.00
C6       0.65721    0.20499    0.47154   1.00
C6       0.64198    0.15422    0.50759   1.00
C6       0.64465    0.16684    0.46995   1.00
H3       0.65429    0.18503    0.56197   1.00
H3       0.66244    0.22358    0.44700   1.00
H3       0.63298    0.12568    0.51713   1.00
H3       0.63819    0.15008    0.44425   1.00
N1       0.80801    0.32388    0.49143   1.00
C6       0.81989    0.32584    0.52846   1.00
C6       0.84009    0.32414    0.46927   1.00
C6       0.86004    0.32685    0.53005   1.00
C6       0.87289    0.32576    0.49241   1.00
H3       0.80058    0.32620    0.55300   1.00
H3       0.83984    0.32288    0.43803   1.00
H3       0.87795    0.32820    0.55575   1.00
H3       0.90282    0.32614    0.48287   1.00
C4       0.75012    0.47915    0.25016   1.00
C4       0.74988    0.52085    0.24984   1.00
C3a      0.78466    0.45746    0.25868   1.00
C3       0.74771    0.54232    0.28490   1.00
C3       0.71592    0.45768    0.24212   1.00
C3a      0.75170    0.54254    0.21431   1.00
C2       0.74994    0.39488    0.25005   1.00
C2       0.74993    0.60512    0.25005   1.00
C3       0.78404    0.41595    0.25841   1.00
C3       0.74785    0.58363    0.28496   1.00
C3       0.71591    0.41637    0.24196   1.00
C3       0.75177    0.58405    0.21498   1.00
C5       0.82287    0.47772    0.26758   1.00
H1       0.74629    0.52691    0.31246   1.00
H1       0.81041    0.39979    0.26471   1.00
H1       0.74637    0.59901    0.31250   1.00
H1       0.68912    0.40099    0.23542   1.00
H1       0.75336    0.60021    0.18791   1.00
C5       0.75421    0.52228    0.17515   1.00
H1       0.68913    0.47309    0.23552   1.00
H2       0.76645    0.54256    0.15304   1.00
H2       0.77480    0.49731    0.17677   1.00
H2       0.84758    0.45744    0.26225   1.00
H2       0.82727    0.50269    0.24740   1.00
N1       0.71579    0.50857    0.16251   1.00
C6       0.68516    0.53073    0.15300   1.00
C6       0.70499    0.47154    0.15721   1.00
C6       0.65422    0.50759    0.14198   1.00
C6       0.66684    0.46995    0.14465   1.00
H3       0.68503    0.56197    0.15429   1.00
H3       0.72358    0.44700    0.16244   1.00
H3       0.62568    0.51713    0.13298   1.00
H3       0.65008    0.44425    0.13819   1.00
N1       0.82388    0.49143    0.30801   1.00
C6       0.82584    0.52846    0.31989   1.00
C6       0.82414    0.46927    0.34009   1.00
C6       0.82685    0.53005    0.36004   1.00
C6       0.82576    0.49241    0.37289   1.00
H3       0.82620    0.55300    0.30058   1.00
H3       0.82288    0.43803    0.33984   1.00
H3       0.82820    0.55575    0.37795   1.00
H3       0.82614    0.48287    0.40282   1.00
C4       0.52085    0.25016    0.24988   1.00
C4       0.47915    0.24984    0.25012   1.00
C3a      0.54254    0.25868    0.21534   1.00
C3       0.45768    0.28490    0.25229   1.00
C3       0.54232    0.24212    0.28408   1.00
C3a      0.45746    0.21431    0.24830   1.00
C2       0.60512    0.25005    0.25006   1.00
C2       0.39488    0.25005    0.25007   1.00
C3       0.58405    0.25841    0.21596   1.00
C3       0.41637    0.28496    0.25215   1.00
C3       0.58363    0.24196    0.28409   1.00
C3       0.41595    0.21498    0.24823   1.00
C5       0.52228    0.26758    0.17713   1.00
H1       0.47309    0.31246    0.25371   1.00
H1       0.60021    0.26471    0.18959   1.00
H1       0.40099    0.31250    0.25363   1.00
H1       0.59901    0.23542    0.31088   1.00
H1       0.39979    0.18791    0.24664   1.00
C5       0.47772    0.17515    0.24579   1.00
H1       0.52691    0.23552    0.31087   1.00
H2       0.45744    0.15304    0.23355   1.00
H2       0.50269    0.17677    0.22520   1.00
H2       0.54256    0.26225    0.15242   1.00
H2       0.49731    0.24740    0.17273   1.00
N1       0.49143    0.16251    0.28421   1.00
C6       0.46927    0.15300    0.31484   1.00
C6       0.52846    0.15721    0.29501   1.00
C6       0.49241    0.14198    0.34578   1.00
C6       0.53005    0.14465    0.33316   1.00
H3       0.43803    0.15429    0.31497   1.00
H3       0.55300    0.16244    0.27642   1.00
H3       0.48287    0.13298    0.37432   1.00
H3       0.55575    0.13819    0.34992   1.00
N1       0.50857    0.30801    0.17612   1.00
C6       0.47154    0.31989    0.17416   1.00
C6       0.53073    0.34009    0.17586   1.00
C6       0.46995    0.36004    0.17315   1.00
C6       0.50759    0.37289    0.17424   1.00
H3       0.44700    0.30058    0.17380   1.00
H3       0.56197    0.33984    0.17712   1.00
H3       0.44425    0.37795    0.17180   1.00
H3       0.51713    0.40282    0.17386   1.00
C4       0.97915    0.25016    0.25012   1.00
C4       1.02085    0.24984    0.24988   1.00
C3a      0.95746    0.25868    0.28466   1.00
C3       1.04232    0.28490    0.24771   1.00
C3       0.95768    0.24212    0.21592   1.00
C3a      1.04254    0.21431    0.25170   1.00
C2       0.89488    0.25005    0.24994   1.00
C2       1.10512    0.25005    0.24993   1.00
C3       0.91595    0.25841    0.28404   1.00
C3       1.08363    0.28496    0.24785   1.00
C3       0.91637    0.24196    0.21591   1.00
C3       1.08405    0.21498    0.25177   1.00
C5       0.97772    0.26758    0.32287   1.00
H1       1.02691    0.31246    0.24629   1.00
H1       0.89979    0.26471    0.31041   1.00
H1       1.09901    0.31250    0.24637   1.00
H1       0.90099    0.23542    0.18912   1.00
H1       1.10021    0.18791    0.25336   1.00
C5       1.02228    0.17515    0.25421   1.00
H1       0.97309    0.23552    0.18913   1.00
H2       1.04256    0.15304    0.26645   1.00
H2       0.99731    0.17677    0.27480   1.00
H2       0.95744    0.26225    0.34758   1.00
H2       1.00269    0.24740    0.32727   1.00
N1       1.00857    0.16251    0.21579   1.00
C6       1.03073    0.15300    0.18516   1.00
C6       0.97154    0.15721    0.20499   1.00
C6       1.00759    0.14198    0.15422   1.00
C6       0.96995    0.14465    0.16684   1.00
H3       1.06197    0.15429    0.18503   1.00
H3       0.94700    0.16244    0.22358   1.00
H3       1.01713    0.13298    0.12568   1.00
H3       0.94425    0.13819    0.15008   1.00
N1       0.99143    0.30801    0.32388   1.00
C6       1.02846    0.31989    0.32584   1.00
C6       0.96927    0.34009    0.32414   1.00
C6       1.03005    0.36004    0.32685   1.00
C6       0.99241    0.37289    0.32576   1.00
H3       1.05300    0.30058    0.32620   1.00
H3       0.93803    0.33984    0.32288   1.00
H3       1.05575    0.37795    0.32820   1.00
H3       0.98287    0.40282    0.32614   1.00
C4       0.74988    0.02085    0.25016   1.00
C4       0.75012    -0.02085   0.24984   1.00
C3a      0.71534    0.04254    0.25868   1.00
C3       0.75229    -0.04232   0.28490   1.00
C3       0.78408    0.04232    0.24212   1.00
C3a      0.74830    -0.04254   0.21431   1.00
C2       0.75006    0.10512    0.25005   1.00
C2       0.75007    -0.10512   0.25005   1.00
C3       0.71596    0.08405    0.25841   1.00
C3       0.75215    -0.08363   0.28496   1.00
C3       0.78409    0.08363    0.24196   1.00
C3       0.74823    -0.08405   0.21498   1.00
C5       0.67713    0.02228    0.26758   1.00
H1       0.75371    -0.02691   0.31246   1.00
H1       0.68959    0.10021    0.26471   1.00
H1       0.75363    -0.09901   0.31250   1.00
H1       0.81088    0.09901    0.23542   1.00
H1       0.74664    -0.10021   0.18791   1.00
C5       0.74579    -0.02228   0.17515   1.00
H1       0.81087    0.02691    0.23552   1.00
H2       0.73355    -0.04256   0.15304   1.00
H2       0.72520    0.00269    0.17677   1.00
H2       0.65242    0.04256    0.26225   1.00
H2       0.67273    -0.00269   0.24740   1.00
N1       0.78421    -0.00857   0.16251   1.00
C6       0.81484    -0.03073   0.15300   1.00
C6       0.79501    0.02846    0.15721   1.00
C6       0.84578    -0.00759   0.14198   1.00
C6       0.83316    0.03005    0.14465   1.00
H3       0.81497    -0.06197   0.15429   1.00
H3       0.77642    0.05300    0.16244   1.00
H3       0.87432    -0.01713   0.13298   1.00
H3       0.84992    0.05575    0.13819   1.00
N1       0.67612    0.00857    0.30801   1.00
C6       0.67416    -0.02846   0.31989   1.00
C6       0.67586    0.03073    0.34009   1.00
C6       0.67315    -0.03005   0.36004   1.00
C6       0.67424    0.00759    0.37289   1.00
H3       0.67380    -0.05300   0.30058   1.00
H3       0.67712    0.06197    0.33984   1.00
H3       0.67180    -0.05575   0.37795   1.00
H3       0.67386    0.01713    0.40282   1.00
C4       0.75016    0.24988    0.02085   1.00
C4       0.74984    0.25012    -0.02085   1.00
C3a      0.75868    0.21534    0.04254   1.00
C3       0.78490    0.25229    -0.04232   1.00
C3       0.74212    0.28408    0.04232   1.00
C3a      0.71431    0.24830    -0.04254   1.00
C2       0.75005    0.25006    0.10512   1.00
C2       0.75005    0.25007    -0.10512   1.00
C3       0.75841    0.21596    0.08405   1.00
C3       0.78496    0.25215    -0.08363   1.00
C3       0.74196    0.28409    0.08363   1.00
C3       0.71498    0.24823    -0.08405   1.00
C5       0.76758    0.17713    0.02228   1.00
H1       0.81246    0.25371    -0.02691   1.00
H1       0.76471    0.18959    0.10021   1.00
H1       0.81250    0.25363    -0.09901   1.00
H1       0.73542    0.31088    0.09901   1.00
H1       0.68791    0.24664    -0.10021   1.00
C5       0.67515    0.24579    -0.02228   1.00
H1       0.73552    0.31087    0.02691   1.00
H2       0.65304    0.23355    -0.04256   1.00
H2       0.67677    0.22520    0.00269   1.00
H2       0.76225    0.15242    0.04256   1.00
H2       0.74740    0.17273    -0.00269   1.00
N1       0.66251    0.28421    -0.00857   1.00
C6       0.65300    0.31484    -0.03073   1.00
C6       0.65721    0.29501    0.02846   1.00
C6       0.64198    0.34578    -0.00759   1.00
C6       0.64465    0.33316    0.03005   1.00
H3       0.65429    0.31497    -0.06197   1.00
H3       0.66244    0.27642    0.05300   1.00
H3       0.63298    0.37432    -0.01713   1.00
H3       0.63819    0.34992    0.05575   1.00
N1       0.80801    0.17612    0.00857   1.00
C6       0.81989    0.17416    -0.02846   1.00
C6       0.84009    0.17586    0.03073   1.00
C6       0.86004    0.17315    -0.03005   1.00
C6       0.87289    0.17424    0.00759   1.00
H3       0.80058    0.17380    -0.05300   1.00
H3       0.83984    0.17712    0.06197   1.00
H3       0.87795    0.17180    -0.05575   1.00
H3       0.90282    0.17386    0.01713   1.00
C4       0.91516    0.91512    1.14415   1.00
C4       0.91484    0.91488    1.18585   1.00
C3a      0.92368    0.94966    1.12246   1.00
C3       0.94990    0.91271    1.20732   1.00
C3       0.90712    0.88092    1.12268   1.00
C3a      0.87931    0.91670    1.20754   1.00
C2       0.91505    0.91494    1.05988   1.00
C2       0.91505    0.91493    1.27012   1.00
C3       0.92341    0.94904    1.08095   1.00
C3       0.94996    0.91285    1.24863   1.00
C3       0.90696    0.88091    1.08137   1.00
C3       0.87998    0.91677    1.24905   1.00
C5       0.93258    0.98787    1.14272   1.00
H1       0.97746    0.91129    1.19191   1.00
H1       0.92971    0.97541    1.06479   1.00
H1       0.97750    0.91137    1.26401   1.00
H1       0.90042    0.85412    1.06599   1.00
H1       0.85291    0.91836    1.26521   1.00
C5       0.84015    0.91921    1.18728   1.00
H1       0.90052    0.85413    1.13809   1.00
H2       0.81804    0.93145    1.20756   1.00
H2       0.84177    0.93980    1.16231   1.00
H2       0.92725    1.01258    1.12244   1.00
H2       0.91240    0.99227    1.16769   1.00
N1       0.82751    0.88079    1.17357   1.00
C6       0.81800    0.85016    1.19573   1.00
C6       0.82221    0.86999    1.13654   1.00
C6       0.80698    0.81922    1.17259   1.00
C6       0.80965    0.83184    1.13495   1.00
H3       0.81929    0.85003    1.22697   1.00
H3       0.82744    0.88858    1.11200   1.00
H3       0.79798    0.79068    1.18213   1.00
H3       0.80319    0.81508    1.10925   1.00
N1       0.97301    0.98888    1.15643   1.00
C6       0.98489    0.99084    1.19346   1.00
C6       1.00509    0.98914    1.13427   1.00
C6       1.02504    0.99185    1.19505   1.00
C6       1.03789    0.99076    1.15741   1.00
H3       0.96558    0.99120    1.21800   1.00
H3       1.00484    0.98788    1.10303   1.00
H3       1.04295    0.99320    1.22075   1.00
H3       1.06782    0.99114    1.14787   1.00
C4       0.91512    1.14415    0.91516   1.00
C4       0.91488    1.18585    0.91484   1.00
C3a      0.94966    1.12246    0.92368   1.00
C3       0.91271    1.20732    0.94990   1.00
C3       0.88092    1.12268    0.90712   1.00
C3a      0.91670    1.20754    0.87931   1.00
C2       0.91494    1.05988    0.91505   1.00
C2       0.91493    1.27012    0.91505   1.00
C3       0.94904    1.08095    0.92341   1.00
C3       0.91285    1.24863    0.94996   1.00
C3       0.88091    1.08137    0.90696   1.00
C3       0.91677    1.24905    0.87998   1.00
C5       0.98787    1.14272    0.93258   1.00
H1       0.91129    1.19191    0.97746   1.00
H1       0.97541    1.06479    0.92971   1.00
H1       0.91137    1.26401    0.97750   1.00
H1       0.85412    1.06599    0.90042   1.00
H1       0.91836    1.26521    0.85291   1.00
C5       0.91921    1.18728    0.84015   1.00
H1       0.85413    1.13809    0.90052   1.00
H2       0.93145    1.20756    0.81804   1.00
H2       0.93980    1.16231    0.84177   1.00
H2       1.01258    1.12244    0.92725   1.00
H2       0.99227    1.16769    0.91240   1.00
N1       0.88079    1.17357    0.82751   1.00
C6       0.85016    1.19573    0.81800   1.00
C6       0.86999    1.13654    0.82221   1.00
C6       0.81922    1.17259    0.80698   1.00
C6       0.83184    1.13495    0.80965   1.00
H3       0.85003    1.22697    0.81929   1.00
H3       0.88858    1.11200    0.82744   1.00
H3       0.79068    1.18213    0.79798   1.00
H3       0.81508    1.10925    0.80319   1.00
N1       0.98888    1.15643    0.97301   1.00
C6       0.99084    1.19346    0.98489   1.00
C6       0.98914    1.13427    1.00509   1.00
C6       0.99185    1.19505    1.02504   1.00
C6       0.99076    1.15741    1.03789   1.00
H3       0.99120    1.21800    0.96558   1.00
H3       0.98788    1.10303    1.00484   1.00
H3       0.99320    1.22075    1.04295   1.00
H3       0.99114    1.14787    1.06782   1.00
C4       0.68585    0.91516    0.91488   1.00
C4       0.64415    0.91484    0.91512   1.00
C3a      0.70754    0.92368    0.88034   1.00
C3       0.62268    0.94990    0.91729   1.00
C3       0.70732    0.90712    0.94908   1.00
C3a      0.62246    0.87931    0.91330   1.00
C2       0.77012    0.91505    0.91506   1.00
C2       0.55988    0.91505    0.91507   1.00
C3       0.74905    0.92341    0.88096   1.00
C3       0.58137    0.94996    0.91715   1.00
C3       0.74863    0.90696    0.94909   1.00
C3       0.58095    0.87998    0.91323   1.00
C5       0.68728    0.93258    0.84213   1.00
H1       0.63809    0.97746    0.91871   1.00
H1       0.76521    0.92971    0.85459   1.00
H1       0.56599    0.97750    0.91863   1.00
H1       0.76401    0.90042    0.97588   1.00
H1       0.56479    0.85291    0.91164   1.00
C5       0.64272    0.84015    0.91079   1.00
H1       0.69191    0.90052    0.97587   1.00
H2       0.62244    0.81804    0.89855   1.00
H2       0.66769    0.84177    0.89020   1.00
H2       0.70756    0.92725    0.81742   1.00
H2       0.66231    0.91240    0.83773   1.00
N1       0.65643    0.82751    0.94921   1.00
C6       0.63427    0.81800    0.97984   1.00
C6       0.69346    0.82221    0.96001   1.00
C6       0.65741    0.80698    1.01078   1.00
C6       0.69505    0.80965    0.99816   1.00
H3       0.60303    0.81929    0.97997   1.00
H3       0.71800    0.82744    0.94142   1.00
H3       0.64787    0.79798    1.03932   1.00
H3       0.72075    0.80319    1.01492   1.00
N1       0.67357    0.97301    0.84112   1.00
C6       0.63654    0.98489    0.83916   1.00
C6       0.69573    1.00509    0.84086   1.00
C6       0.63495    1.02504    0.83815   1.00
C6       0.67259    1.03789    0.83924   1.00
H3       0.61200    0.96558    0.83880   1.00
H3       0.72697    1.00484    0.84212   1.00
H3       0.60925    1.04295    0.83680   1.00
H3       0.68213    1.06782    0.83886   1.00
C4       1.14415    0.91516    0.91512   1.00
C4       1.18585    0.91484    0.91488   1.00
C3a      1.12246    0.92368    0.94966   1.00
C3       1.20732    0.94990    0.91271   1.00
C3       1.12268    0.90712    0.88092   1.00
C3a      1.20754    0.87931    0.91670   1.00
C2       1.05988    0.91505    0.91494   1.00
C2       1.27012    0.91505    0.91493   1.00
C3       1.08095    0.92341    0.94904   1.00
C3       1.24863    0.94996    0.91285   1.00
C3       1.08137    0.90696    0.88091   1.00
C3       1.24905    0.87998    0.91677   1.00
C5       1.14272    0.93258    0.98787   1.00
H1       1.19191    0.97746    0.91129   1.00
H1       1.06479    0.92971    0.97541   1.00
H1       1.26401    0.97750    0.91137   1.00
H1       1.06599    0.90042    0.85412   1.00
H1       1.26521    0.85291    0.91836   1.00
C5       1.18728    0.84015    0.91921   1.00
H1       1.13809    0.90052    0.85413   1.00
H2       1.20756    0.81804    0.93145   1.00
H2       1.16231    0.84177    0.93980   1.00
H2       1.12244    0.92725    1.01258   1.00
H2       1.16769    0.91240    0.99227   1.00
N1       1.17357    0.82751    0.88079   1.00
C6       1.19573    0.81800    0.85016   1.00
C6       1.13654    0.82221    0.86999   1.00
C6       1.17259    0.80698    0.81922   1.00
C6       1.13495    0.80965    0.83184   1.00
H3       1.22697    0.81929    0.85003   1.00
H3       1.11200    0.82744    0.88858   1.00
H3       1.18213    0.79798    0.79068   1.00
H3       1.10925    0.80319    0.81508   1.00
N1       1.15643    0.97301    0.98888   1.00
C6       1.19346    0.98489    0.99084   1.00
C6       1.13427    1.00509    0.98914   1.00
C6       1.19505    1.02504    0.99185   1.00
C6       1.15741    1.03789    0.99076   1.00
H3       1.21800    0.96558    0.99120   1.00
H3       1.10303    1.00484    0.98788   1.00
H3       1.22075    1.04295    0.99320   1.00
H3       1.14787    1.06782    0.99114   1.00
C4       0.91488    0.68585    0.91516   1.00
C4       0.91512    0.64415    0.91484   1.00
C3a      0.88034    0.70754    0.92368   1.00
C3       0.91729    0.62268    0.94990   1.00
C3       0.94908    0.70732    0.90712   1.00
C3a      0.91330    0.62246    0.87931   1.00
C2       0.91506    0.77012    0.91505   1.00
C2       0.91507    0.55988    0.91505   1.00
C3       0.88096    0.74905    0.92341   1.00
C3       0.91715    0.58137    0.94996   1.00
C3       0.94909    0.74863    0.90696   1.00
C3       0.91323    0.58095    0.87998   1.00
C5       0.84213    0.68728    0.93258   1.00
H1       0.91871    0.63809    0.97746   1.00
H1       0.85459    0.76521    0.92971   1.00
H1       0.91863    0.56599    0.97750   1.00
H1       0.97588    0.76401    0.90042   1.00
H1       0.91164    0.56479    0.85291   1.00
C5       0.91079    0.64272    0.84015   1.00
H1       0.97587    0.69191    0.90052   1.00
H2       0.89855    0.62244    0.81804   1.00
H2       0.89020    0.66769    0.84177   1.00
H2       0.81742    0.70756    0.92725   1.00
H2       0.83773    0.66231    0.91240   1.00
N1       0.94921    0.65643    0.82751   1.00
C6       0.97984    0.63427    0.81800   1.00
C6       0.96001    0.69346    0.82221   1.00
C6       1.01078    0.65741    0.80698   1.00
C6       0.99816    0.69505    0.80965   1.00
H3       0.97997    0.60303    0.81929   1.00
H3       0.94142    0.71800    0.82744   1.00
H3       1.03932    0.64787    0.79798   1.00
H3       1.01492    0.72075    0.80319   1.00
N1       0.84112    0.67357    0.97301   1.00
C6       0.83916    0.63654    0.98489   1.00
C6       0.84086    0.69573    1.00509   1.00
C6       0.83815    0.63495    1.02504   1.00
C6       0.83924    0.67259    1.03789   1.00
H3       0.83880    0.61200    0.96558   1.00
H3       0.84212    0.72697    1.00484   1.00
H3       0.83680    0.60925    1.04295   1.00
H3       0.83886    0.68213    1.06782   1.00
C4       0.91516    0.91488    0.68585   1.00
C4       0.91484    0.91512    0.64415   1.00
C3a      0.92368    0.88034    0.70754   1.00
C3       0.94990    0.91729    0.62268   1.00
C3       0.90712    0.94908    0.70732   1.00
C3a      0.87931    0.91330    0.62246   1.00
C2       0.91505    0.91506    0.77012   1.00
C2       0.91505    0.91507    0.55988   1.00
C3       0.92341    0.88096    0.74905   1.00
C3       0.94996    0.91715    0.58137   1.00
C3       0.90696    0.94909    0.74863   1.00
C3       0.87998    0.91323    0.58095   1.00
C5       0.93258    0.84213    0.68728   1.00
H1       0.97746    0.91871    0.63809   1.00
H1       0.92971    0.85459    0.76521   1.00
H1       0.97750    0.91863    0.56599   1.00
H1       0.90042    0.97588    0.76401   1.00
H1       0.85291    0.91164    0.56479   1.00
C5       0.84015    0.91079    0.64272   1.00
H1       0.90052    0.97587    0.69191   1.00
H2       0.81804    0.89855    0.62244   1.00
H2       0.84177    0.89020    0.66769   1.00
H2       0.92725    0.81742    0.70756   1.00
H2       0.91240    0.83773    0.66231   1.00
N1       0.82751    0.94921    0.65643   1.00
C6       0.81800    0.97984    0.63427   1.00
C6       0.82221    0.96001    0.69346   1.00
C6       0.80698    1.01078    0.65741   1.00
C6       0.80965    0.99816    0.69505   1.00
H3       0.81929    0.97997    0.60303   1.00
H3       0.82744    0.94142    0.71800   1.00
H3       0.79798    1.03932    0.64787   1.00
H3       0.80319    1.01492    0.72075   1.00
N1       0.97301    0.84112    0.67357   1.00
C6       0.98489    0.83916    0.63654   1.00
C6       1.00509    0.84086    0.69573   1.00
C6       1.02504    0.83815    0.63495   1.00
C6       1.03789    0.83924    0.67259   1.00
H3       0.96558    0.83880    0.61200   1.00
H3       1.00484    0.84212    0.72697   1.00
H3       1.04295    0.83680    0.60925   1.00
H3       1.06782    0.83886    0.68213   1.00
C4       0.41516    0.41512    1.14415   1.00
C4       0.41484    0.41488    1.18585   1.00
C3a      0.42368    0.44966    1.12246   1.00
C3       0.44990    0.41271    1.20732   1.00
C3       0.40712    0.38092    1.12268   1.00
C3a      0.37931    0.41670    1.20754   1.00
C2       0.41505    0.41494    1.05988   1.00
C2       0.41505    0.41493    1.27012   1.00
C3       0.42341    0.44904    1.08095   1.00
C3       0.44996    0.41285    1.24863   1.00
C3       0.40696    0.38091    1.08137   1.00
C3       0.37998    0.41677    1.24905   1.00
C5       0.43258    0.48787    1.14272   1.00
H1       0.47746    0.41129    1.19191   1.00
H1       0.42971    0.47541    1.06479   1.00
H1       0.47750    0.41137    1.26401   1.00
H1       0.40042    0.35412    1.06599   1.00
H1       0.35291    0.41836    1.26521   1.00
C5       0.34015    0.41921    1.18728   1.00
H1       0.40052    0.35413    1.13809   1.00
H2       0.31804    0.43145    1.20756   1.00
H2       0.34177    0.43980    1.16231   1.00
H2       0.42725    0.51258    1.12244   1.00
H2       0.41240    0.49227    1.16769   1.00
N1       0.32751    0.38079    1.17357   1.00
C6       0.31800    0.35016    1.19573   1.00
C6       0.32221    0.36999    1.13654   1.00
C6       0.30698    0.31922    1.17259   1.00
C6       0.30965    0.33184    1.13495   1.00
H3       0.31929    0.35003    1.22697   1.00
H3       0.32744    0.38858    1.11200   1.00
H3       0.29798    0.29068    1.18213   1.00
H3       0.30319    0.31508    1.10925   1.00
N1       0.47301    0.48888    1.15643   1.00
C6       0.48489    0.49084    1.19346   1.00
C6       0.50509    0.48914    1.13427   1.00
C6       0.52504    0.49185    1.19505   1.00
C6       0.53789    0.49076    1.15741   1.00
H3       0.46558    0.49120    1.21800   1.00
H3       0.50484    0.48788    1.10303   1.00
H3       0.54295    0.49320    1.22075   1.00
H3       0.56782    0.49114    1.14787   1.00
C4       0.41512    0.64415    0.91516   1.00
C4       0.41488    0.68585    0.91484   1.00
C3a      0.44966    0.62246    0.92368   1.00
C3       0.41271    0.70732    0.94990   1.00
C3       0.38092    0.62268    0.90712   1.00
C3a      0.41670    0.70754    0.87931   1.00
C2       0.41494    0.55988    0.91505   1.00
C2       0.41493    0.77012    0.91505   1.00
C3       0.44904    0.58095    0.92341   1.00
C3       0.41285    0.74863    0.94996   1.00
C3       0.38091    0.58137    0.90696   1.00
C3       0.41677    0.74905    0.87998   1.00
C5       0.48787    0.64272    0.93258   1.00
H1       0.41129    0.69191    0.97746   1.00
H1       0.47541    0.56479    0.92971   1.00
H1       0.41137    0.76401    0.97750   1.00
H1       0.35412    0.56599    0.90042   1.00
H1       0.41836    0.76521    0.85291   1.00
C5       0.41921    0.68728    0.84015   1.00
H1       0.35413    0.63809    0.90052   1.00
H2       0.43145    0.70756    0.81804   1.00
H2       0.43980    0.66231    0.84177   1.00
H2       0.51258    0.62244    0.92725   1.00
H2       0.49227    0.66769    0.91240   1.00
N1       0.38079    0.67357    0.82751   1.00
C6       0.35016    0.69573    0.81800   1.00
C6       0.36999    0.63654    0.82221   1.00
C6       0.31922    0.67259    0.80698   1.00
C6       0.33184    0.63495    0.80965   1.00
H3       0.35003    0.72697    0.81929   1.00
H3       0.38858    0.61200    0.82744   1.00
H3       0.29068    0.68213    0.79798   1.00
H3       0.31508    0.60925    0.80319   1.00
N1       0.48888    0.65643    0.97301   1.00
C6       0.49084    0.69346    0.98489   1.00
C6       0.48914    0.63427    1.00509   1.00
C6       0.49185    0.69505    1.02504   1.00
C6       0.49076    0.65741    1.03789   1.00
H3       0.49120    0.71800    0.96558   1.00
H3       0.48788    0.60303    1.00484   1.00
H3       0.49320    0.72075    1.04295   1.00
H3       0.49114    0.64787    1.06782   1.00
C4       0.18585    0.41516    0.91488   1.00
C4       0.14415    0.41484    0.91512   1.00
C3a      0.20754    0.42368    0.88034   1.00
C3       0.12268    0.44990    0.91729   1.00
C3       0.20732    0.40712    0.94908   1.00
C3a      0.12246    0.37931    0.91330   1.00
C2       0.27012    0.41505    0.91506   1.00
C2       0.05988    0.41505    0.91507   1.00
C3       0.24905    0.42341    0.88096   1.00
C3       0.08137    0.44996    0.91715   1.00
C3       0.24863    0.40696    0.94909   1.00
C3       0.08095    0.37998    0.91323   1.00
C5       0.18728    0.43258    0.84213   1.00
H1       0.13809    0.47746    0.91871   1.00
H1       0.26521    0.42971    0.85459   1.00
H1       0.06599    0.47750    0.91863   1.00
H1       0.26401    0.40042    0.97588   1.00
H1       0.06479    0.35291    0.91164   1.00
C5       0.14272    0.34015    0.91079   1.00
H1       0.19191    0.40052    0.97587   1.00
H2       0.12244    0.31804    0.89855   1.00
H2       0.16769    0.34177    0.89020   1.00
H2       0.20756    0.42725    0.81742   1.00
H2       0.16231    0.41240    0.83773   1.00
N1       0.15643    0.32751    0.94921   1.00
C6       0.13427    0.31800    0.97984   1.00
C6       0.19346    0.32221    0.96001   1.00
C6       0.15741    0.30698    1.01078   1.00
C6       0.19505    0.30965    0.99816   1.00
H3       0.10303    0.31929    0.97997   1.00
H3       0.21800    0.32744    0.94142   1.00
H3       0.14787    0.29798    1.03932   1.00
H3       0.22075    0.30319    1.01492   1.00
N1       0.17357    0.47301    0.84112   1.00
C6       0.13654    0.48489    0.83916   1.00
C6       0.19573    0.50509    0.84086   1.00
C6       0.13495    0.52504    0.83815   1.00
C6       0.17259    0.53789    0.83924   1.00
H3       0.11200    0.46558    0.83880   1.00
H3       0.22697    0.50484    0.84212   1.00
H3       0.10925    0.54295    0.83680   1.00
H3       0.18213    0.56782    0.83886   1.00
C4       0.64415    0.41516    0.91512   1.00
C4       0.68585    0.41484    0.91488   1.00
C3a      0.62246    0.42368    0.94966   1.00
C3       0.70732    0.44990    0.91271   1.00
C3       0.62268    0.40712    0.88092   1.00
C3a      0.70754    0.37931    0.91670   1.00
C2       0.55988    0.41505    0.91494   1.00
C2       0.77012    0.41505    0.91493   1.00
C3       0.58095    0.42341    0.94904   1.00
C3       0.74863    0.44996    0.91285   1.00
C3       0.58137    0.40696    0.88091   1.00
C3       0.74905    0.37998    0.91677   1.00
C5       0.64272    0.43258    0.98787   1.00
H1       0.69191    0.47746    0.91129   1.00
H1       0.56479    0.42971    0.97541   1.00
H1       0.76401    0.47750    0.91137   1.00
H1       0.56599    0.40042    0.85412   1.00
H1       0.76521    0.35291    0.91836   1.00
C5       0.68728    0.34015    0.91921   1.00
H1       0.63809    0.40052    0.85413   1.00
H2       0.70756    0.31804    0.93145   1.00
H2       0.66231    0.34177    0.93980   1.00
H2       0.62244    0.42725    1.01258   1.00
H2       0.66769    0.41240    0.99227   1.00
N1       0.67357    0.32751    0.88079   1.00
C6       0.69573    0.31800    0.85016   1.00
C6       0.63654    0.32221    0.86999   1.00
C6       0.67259    0.30698    0.81922   1.00
C6       0.63495    0.30965    0.83184   1.00
H3       0.72697    0.31929    0.85003   1.00
H3       0.61200    0.32744    0.88858   1.00
H3       0.68213    0.29798    0.79068   1.00
H3       0.60925    0.30319    0.81508   1.00
N1       0.65643    0.47301    0.98888   1.00
C6       0.69346    0.48489    0.99084   1.00
C6       0.63427    0.50509    0.98914   1.00
C6       0.69505    0.52504    0.99185   1.00
C6       0.65741    0.53789    0.99076   1.00
H3       0.71800    0.46558    0.99120   1.00
H3       0.60303    0.50484    0.98788   1.00
H3       0.72075    0.54295    0.99320   1.00
H3       0.64787    0.56782    0.99114   1.00
C4       0.41488    0.18585    0.91516   1.00
C4       0.41512    0.14415    0.91484   1.00
C3a      0.38034    0.20754    0.92368   1.00
C3       0.41729    0.12268    0.94990   1.00
C3       0.44908    0.20732    0.90712   1.00
C3a      0.41330    0.12246    0.87931   1.00
C2       0.41506    0.27012    0.91505   1.00
C2       0.41507    0.05988    0.91505   1.00
C3       0.38096    0.24905    0.92341   1.00
C3       0.41715    0.08137    0.94996   1.00
C3       0.44909    0.24863    0.90696   1.00
C3       0.41323    0.08095    0.87998   1.00
C5       0.34213    0.18728    0.93258   1.00
H1       0.41871    0.13809    0.97746   1.00
H1       0.35459    0.26521    0.92971   1.00
H1       0.41863    0.06599    0.97750   1.00
H1       0.47588    0.26401    0.90042   1.00
H1       0.41164    0.06479    0.85291   1.00
C5       0.41079    0.14272    0.84015   1.00
H1       0.47587    0.19191    0.90052   1.00
H2       0.39855    0.12244    0.81804   1.00
H2       0.39020    0.16769    0.84177   1.00
H2       0.31742    0.20756    0.92725   1.00
H2       0.33773    0.16231    0.91240   1.00
N1       0.44921    0.15643    0.82751   1.00
C6       0.47984    0.13427    0.81800   1.00
C6       0.46001    0.19346    0.82221   1.00
C6       0.51078    0.15741    0.80698   1.00
C6       0.49816    0.19505    0.80965   1.00
H3       0.47997    0.10303    0.81929   1.00
H3       0.44142    0.21800    0.82744   1.00
H3       0.53932    0.14787    0.79798   1.00
H3       0.51492    0.22075    0.80319   1.00
N1       0.34112    0.17357    0.97301   1.00
C6       0.33916    0.13654    0.98489   1.00
C6       0.34086    0.19573    1.00509   1.00
C6       0.33815    0.13495    1.02504   1.00
C6       0.33924    0.17259    1.03789   1.00
H3       0.33880    0.11200    0.96558   1.00
H3       0.34212    0.22697    1.00484   1.00
H3       0.33680    0.10925    1.04295   1.00
H3       0.33886    0.18213    1.06782   1.00
C4       0.41516    0.41488    0.68585   1.00
C4       0.41484    0.41512    0.64415   1.00
C3a      0.42368    0.38034    0.70754   1.00
C3       0.44990    0.41729    0.62268   1.00
C3       0.40712    0.44908    0.70732   1.00
C3a      0.37931    0.41330    0.62246   1.00
C2       0.41505    0.41506    0.77012   1.00
C2       0.41505    0.41507    0.55988   1.00
C3       0.42341    0.38096    0.74905   1.00
C3       0.44996    0.41715    0.58137   1.00
C3       0.40696    0.44909    0.74863   1.00
C3       0.37998    0.41323    0.58095   1.00
C5       0.43258    0.34213    0.68728   1.00
H1       0.47746    0.41871    0.63809   1.00
H1       0.42971    0.35459    0.76521   1.00
H1       0.47750    0.41863    0.56599   1.00
H1       0.40042    0.47588    0.76401   1.00
H1       0.35291    0.41164    0.56479   1.00
C5       0.34015    0.41079    0.64272   1.00
H1       0.40052    0.47587    0.69191   1.00
H2       0.31804    0.39855    0.62244   1.00
H2       0.34177    0.39020    0.66769   1.00
H2       0.42725    0.31742    0.70756   1.00
H2       0.41240    0.33773    0.66231   1.00
N1       0.32751    0.44921    0.65643   1.00
C6       0.31800    0.47984    0.63427   1.00
C6       0.32221    0.46001    0.69346   1.00
C6       0.30698    0.51078    0.65741   1.00
C6       0.30965    0.49816    0.69505   1.00
H3       0.31929    0.47997    0.60303   1.00
H3       0.32744    0.44142    0.71800   1.00
H3       0.29798    0.53932    0.64787   1.00
H3       0.30319    0.51492    0.72075   1.00
N1       0.47301    0.34112    0.67357   1.00
C6       0.48489    0.33916    0.63654   1.00
C6       0.50509    0.34086    0.69573   1.00
C6       0.52504    0.33815    0.63495   1.00
C6       0.53789    0.33924    0.67259   1.00
H3       0.46558    0.33880    0.61200   1.00
H3       0.50484    0.34212    0.72697   1.00
H3       0.54295    0.33680    0.60925   1.00
H3       0.56782    0.33886    0.68213   1.00
C4       0.41516    0.91512    0.64415   1.00
C4       0.41484    0.91488    0.68585   1.00
C3a      0.42368    0.94966    0.62246   1.00
C3       0.44990    0.91271    0.70732   1.00
C3       0.40712    0.88092    0.62268   1.00
C3a      0.37931    0.91670    0.70754   1.00
C2       0.41505    0.91494    0.55988   1.00
C2       0.41505    0.91493    0.77012   1.00
C3       0.42341    0.94904    0.58095   1.00
C3       0.44996    0.91285    0.74863   1.00
C3       0.40696    0.88091    0.58137   1.00
C3       0.37998    0.91677    0.74905   1.00
C5       0.43258    0.98787    0.64272   1.00
H1       0.47746    0.91129    0.69191   1.00
H1       0.42971    0.97541    0.56479   1.00
H1       0.47750    0.91137    0.76401   1.00
H1       0.40042    0.85412    0.56599   1.00
H1       0.35291    0.91836    0.76521   1.00
C5       0.34015    0.91921    0.68728   1.00
H1       0.40052    0.85413    0.63809   1.00
H2       0.31804    0.93145    0.70756   1.00
H2       0.34177    0.93980    0.66231   1.00
H2       0.42725    1.01258    0.62244   1.00
H2       0.41240    0.99227    0.66769   1.00
N1       0.32751    0.88079    0.67357   1.00
C6       0.31800    0.85016    0.69573   1.00
C6       0.32221    0.86999    0.63654   1.00
C6       0.30698    0.81922    0.67259   1.00
C6       0.30965    0.83184    0.63495   1.00
H3       0.31929    0.85003    0.72697   1.00
H3       0.32744    0.88858    0.61200   1.00
H3       0.29798    0.79068    0.68213   1.00
H3       0.30319    0.81508    0.60925   1.00
N1       0.47301    0.98888    0.65643   1.00
C6       0.48489    0.99084    0.69346   1.00
C6       0.50509    0.98914    0.63427   1.00
C6       0.52504    0.99185    0.69505   1.00
C6       0.53789    0.99076    0.65741   1.00
H3       0.46558    0.99120    0.71800   1.00
H3       0.50484    0.98788    0.60303   1.00
H3       0.54295    0.99320    0.72075   1.00
H3       0.56782    0.99114    0.64787   1.00
C4       0.41512    1.14415    0.41516   1.00
C4       0.41488    1.18585    0.41484   1.00
C3a      0.44966    1.12246    0.42368   1.00
C3       0.41271    1.20732    0.44990   1.00
C3       0.38092    1.12268    0.40712   1.00
C3a      0.41670    1.20754    0.37931   1.00
C2       0.41494    1.05988    0.41505   1.00
C2       0.41493    1.27012    0.41505   1.00
C3       0.44904    1.08095    0.42341   1.00
C3       0.41285    1.24863    0.44996   1.00
C3       0.38091    1.08137    0.40696   1.00
C3       0.41677    1.24905    0.37998   1.00
C5       0.48787    1.14272    0.43258   1.00
H1       0.41129    1.19191    0.47746   1.00
H1       0.47541    1.06479    0.42971   1.00
H1       0.41137    1.26401    0.47750   1.00
H1       0.35412    1.06599    0.40042   1.00
H1       0.41836    1.26521    0.35291   1.00
C5       0.41921    1.18728    0.34015   1.00
H1       0.35413    1.13809    0.40052   1.00
H2       0.43145    1.20756    0.31804   1.00
H2       0.43980    1.16231    0.34177   1.00
H2       0.51258    1.12244    0.42725   1.00
H2       0.49227    1.16769    0.41240   1.00
N1       0.38079    1.17357    0.32751   1.00
C6       0.35016    1.19573    0.31800   1.00
C6       0.36999    1.13654    0.32221   1.00
C6       0.31922    1.17259    0.30698   1.00
C6       0.33184    1.13495    0.30965   1.00
H3       0.35003    1.22697    0.31929   1.00
H3       0.38858    1.11200    0.32744   1.00
H3       0.29068    1.18213    0.29798   1.00
H3       0.31508    1.10925    0.30319   1.00
N1       0.48888    1.15643    0.47301   1.00
C6       0.49084    1.19346    0.48489   1.00
C6       0.48914    1.13427    0.50509   1.00
C6       0.49185    1.19505    0.52504   1.00
C6       0.49076    1.15741    0.53789   1.00
H3       0.49120    1.21800    0.46558   1.00
H3       0.48788    1.10303    0.50484   1.00
H3       0.49320    1.22075    0.54295   1.00
H3       0.49114    1.14787    0.56782   1.00
C4       0.18585    0.91516    0.41488   1.00
C4       0.14415    0.91484    0.41512   1.00
C3a      0.20754    0.92368    0.38034   1.00
C3       0.12268    0.94990    0.41729   1.00
C3       0.20732    0.90712    0.44908   1.00
C3a      0.12246    0.87931    0.41330   1.00
C2       0.27012    0.91505    0.41506   1.00
C2       0.05988    0.91505    0.41507   1.00
C3       0.24905    0.92341    0.38096   1.00
C3       0.08137    0.94996    0.41715   1.00
C3       0.24863    0.90696    0.44909   1.00
C3       0.08095    0.87998    0.41323   1.00
C5       0.18728    0.93258    0.34213   1.00
H1       0.13809    0.97746    0.41871   1.00
H1       0.26521    0.92971    0.35459   1.00
H1       0.06599    0.97750    0.41863   1.00
H1       0.26401    0.90042    0.47588   1.00
H1       0.06479    0.85291    0.41164   1.00
C5       0.14272    0.84015    0.41079   1.00
H1       0.19191    0.90052    0.47587   1.00
H2       0.12244    0.81804    0.39855   1.00
H2       0.16769    0.84177    0.39020   1.00
H2       0.20756    0.92725    0.31742   1.00
H2       0.16231    0.91240    0.33773   1.00
N1       0.15643    0.82751    0.44921   1.00
C6       0.13427    0.81800    0.47984   1.00
C6       0.19346    0.82221    0.46001   1.00
C6       0.15741    0.80698    0.51078   1.00
C6       0.19505    0.80965    0.49816   1.00
H3       0.10303    0.81929    0.47997   1.00
H3       0.21800    0.82744    0.44142   1.00
H3       0.14787    0.79798    0.53932   1.00
H3       0.22075    0.80319    0.51492   1.00
N1       0.17357    0.97301    0.34112   1.00
C6       0.13654    0.98489    0.33916   1.00
C6       0.19573    1.00509    0.34086   1.00
C6       0.13495    1.02504    0.33815   1.00
C6       0.17259    1.03789    0.33924   1.00
H3       0.11200    0.96558    0.33880   1.00
H3       0.22697    1.00484    0.34212   1.00
H3       0.10925    1.04295    0.33680   1.00
H3       0.18213    1.06782    0.33886   1.00
C4       0.64415    0.91516    0.41512   1.00
C4       0.68585    0.91484    0.41488   1.00
C3a      0.62246    0.92368    0.44966   1.00
C3       0.70732    0.94990    0.41271   1.00
C3       0.62268    0.90712    0.38092   1.00
C3a      0.70754    0.87931    0.41670   1.00
C2       0.55988    0.91505    0.41494   1.00
C2       0.77012    0.91505    0.41493   1.00
C3       0.58095    0.92341    0.44904   1.00
C3       0.74863    0.94996    0.41285   1.00
C3       0.58137    0.90696    0.38091   1.00
C3       0.74905    0.87998    0.41677   1.00
C5       0.64272    0.93258    0.48787   1.00
H1       0.69191    0.97746    0.41129   1.00
H1       0.56479    0.92971    0.47541   1.00
H1       0.76401    0.97750    0.41137   1.00
H1       0.56599    0.90042    0.35412   1.00
H1       0.76521    0.85291    0.41836   1.00
C5       0.68728    0.84015    0.41921   1.00
H1       0.63809    0.90052    0.35413   1.00
H2       0.70756    0.81804    0.43145   1.00
H2       0.66231    0.84177    0.43980   1.00
H2       0.62244    0.92725    0.51258   1.00
H2       0.66769    0.91240    0.49227   1.00
N1       0.67357    0.82751    0.38079   1.00
C6       0.69573    0.81800    0.35016   1.00
C6       0.63654    0.82221    0.36999   1.00
C6       0.67259    0.80698    0.31922   1.00
C6       0.63495    0.80965    0.33184   1.00
H3       0.72697    0.81929    0.35003   1.00
H3       0.61200    0.82744    0.38858   1.00
H3       0.68213    0.79798    0.29068   1.00
H3       0.60925    0.80319    0.31508   1.00
N1       0.65643    0.97301    0.48888   1.00
C6       0.69346    0.98489    0.49084   1.00
C6       0.63427    1.00509    0.48914   1.00
C6       0.69505    1.02504    0.49185   1.00
C6       0.65741    1.03789    0.49076   1.00
H3       0.71800    0.96558    0.49120   1.00
H3       0.60303    1.00484    0.48788   1.00
H3       0.72075    1.04295    0.49320   1.00
H3       0.64787    1.06782    0.49114   1.00
C4       0.41488    0.68585    0.41516   1.00
C4       0.41512    0.64415    0.41484   1.00
C3a      0.38034    0.70754    0.42368   1.00
C3       0.41729    0.62268    0.44990   1.00
C3       0.44908    0.70732    0.40712   1.00
C3a      0.41330    0.62246    0.37931   1.00
C2       0.41506    0.77012    0.41505   1.00
C2       0.41507    0.55988    0.41505   1.00
C3       0.38096    0.74905    0.42341   1.00
C3       0.41715    0.58137    0.44996   1.00
C3       0.44909    0.74863    0.40696   1.00
C3       0.41323    0.58095    0.37998   1.00
C5       0.34213    0.68728    0.43258   1.00
H1       0.41871    0.63809    0.47746   1.00
H1       0.35459    0.76521    0.42971   1.00
H1       0.41863    0.56599    0.47750   1.00
H1       0.47588    0.76401    0.40042   1.00
H1       0.41164    0.56479    0.35291   1.00
C5       0.41079    0.64272    0.34015   1.00
H1       0.47587    0.69191    0.40052   1.00
H2       0.39855    0.62244    0.31804   1.00
H2       0.39020    0.66769    0.34177   1.00
H2       0.31742    0.70756    0.42725   1.00
H2       0.33773    0.66231    0.41240   1.00
N1       0.44921    0.65643    0.32751   1.00
C6       0.47984    0.63427    0.31800   1.00
C6       0.46001    0.69346    0.32221   1.00
C6       0.51078    0.65741    0.30698   1.00
C6       0.49816    0.69505    0.30965   1.00
H3       0.47997    0.60303    0.31929   1.00
H3       0.44142    0.71800    0.32744   1.00
H3       0.53932    0.64787    0.29798   1.00
H3       0.51492    0.72075    0.30319   1.00
N1       0.34112    0.67357    0.47301   1.00
C6       0.33916    0.63654    0.48489   1.00
C6       0.34086    0.69573    0.50509   1.00
C6       0.33815    0.63495    0.52504   1.00
C6       0.33924    0.67259    0.53789   1.00
H3       0.33880    0.61200    0.46558   1.00
H3       0.34212    0.72697    0.50484   1.00
H3       0.33680    0.60925    0.54295   1.00
H3       0.33886    0.68213    0.56782   1.00
C4       0.41516    0.91488    0.18585   1.00
C4       0.41484    0.91512    0.14415   1.00
C3a      0.42368    0.88034    0.20754   1.00
C3       0.44990    0.91729    0.12268   1.00
C3       0.40712    0.94908    0.20732   1.00
C3a      0.37931    0.91330    0.12246   1.00
C2       0.41505    0.91506    0.27012   1.00
C2       0.41505    0.91507    0.05988   1.00
C3       0.42341    0.88096    0.24905   1.00
C3       0.44996    0.91715    0.08137   1.00
C3       0.40696    0.94909    0.24863   1.00
C3       0.37998    0.91323    0.08095   1.00
C5       0.43258    0.84213    0.18728   1.00
H1       0.47746    0.91871    0.13809   1.00
H1       0.42971    0.85459    0.26521   1.00
H1       0.47750    0.91863    0.06599   1.00
H1       0.40042    0.97588    0.26401   1.00
H1       0.35291    0.91164    0.06479   1.00
C5       0.34015    0.91079    0.14272   1.00
H1       0.40052    0.97587    0.19191   1.00
H2       0.31804    0.89855    0.12244   1.00
H2       0.34177    0.89020    0.16769   1.00
H2       0.42725    0.81742    0.20756   1.00
H2       0.41240    0.83773    0.16231   1.00
N1       0.32751    0.94921    0.15643   1.00
C6       0.31800    0.97984    0.13427   1.00
C6       0.32221    0.96001    0.19346   1.00
C6       0.30698    1.01078    0.15741   1.00
C6       0.30965    0.99816    0.19505   1.00
H3       0.31929    0.97997    0.10303   1.00
H3       0.32744    0.94142    0.21800   1.00
H3       0.29798    1.03932    0.14787   1.00
H3       0.30319    1.01492    0.22075   1.00
N1       0.47301    0.84112    0.17357   1.00
C6       0.48489    0.83916    0.13654   1.00
C6       0.50509    0.84086    0.19573   1.00
C6       0.52504    0.83815    0.13495   1.00
C6       0.53789    0.83924    0.17259   1.00
H3       0.46558    0.83880    0.11200   1.00
H3       0.50484    0.84212    0.22697   1.00
H3       0.54295    0.83680    0.10925   1.00
H3       0.56782    0.83886    0.18213   1.00
C4       0.91516    0.41512    0.64415   1.00
C4       0.91484    0.41488    0.68585   1.00
C3a      0.92368    0.44966    0.62246   1.00
C3       0.94990    0.41271    0.70732   1.00
C3       0.90712    0.38092    0.62268   1.00
C3a      0.87931    0.41670    0.70754   1.00
C2       0.91505    0.41494    0.55988   1.00
C2       0.91505    0.41493    0.77012   1.00
C3       0.92341    0.44904    0.58095   1.00
C3       0.94996    0.41285    0.74863   1.00
C3       0.90696    0.38091    0.58137   1.00
C3       0.87998    0.41677    0.74905   1.00
C5       0.93258    0.48787    0.64272   1.00
H1       0.97746    0.41129    0.69191   1.00
H1       0.92971    0.47541    0.56479   1.00
H1       0.97750    0.41137    0.76401   1.00
H1       0.90042    0.35412    0.56599   1.00
H1       0.85291    0.41836    0.76521   1.00
C5       0.84015    0.41921    0.68728   1.00
H1       0.90052    0.35413    0.63809   1.00
H2       0.81804    0.43145    0.70756   1.00
H2       0.84177    0.43980    0.66231   1.00
H2       0.92725    0.51258    0.62244   1.00
H2       0.91240    0.49227    0.66769   1.00
N1       0.82751    0.38079    0.67357   1.00
C6       0.81800    0.35016    0.69573   1.00
C6       0.82221    0.36999    0.63654   1.00
C6       0.80698    0.31922    0.67259   1.00
C6       0.80965    0.33184    0.63495   1.00
H3       0.81929    0.35003    0.72697   1.00
H3       0.82744    0.38858    0.61200   1.00
H3       0.79798    0.29068    0.68213   1.00
H3       0.80319    0.31508    0.60925   1.00
N1       0.97301    0.48888    0.65643   1.00
C6       0.98489    0.49084    0.69346   1.00
C6       1.00509    0.48914    0.63427   1.00
C6       1.02504    0.49185    0.69505   1.00
C6       1.03789    0.49076    0.65741   1.00
H3       0.96558    0.49120    0.71800   1.00
H3       1.00484    0.48788    0.60303   1.00
H3       1.04295    0.49320    0.72075   1.00
H3       1.06782    0.49114    0.64787   1.00
C4       0.91512    0.64415    0.41516   1.00
C4       0.91488    0.68585    0.41484   1.00
C3a      0.94966    0.62246    0.42368   1.00
C3       0.91271    0.70732    0.44990   1.00
C3       0.88092    0.62268    0.40712   1.00
C3a      0.91670    0.70754    0.37931   1.00
C2       0.91494    0.55988    0.41505   1.00
C2       0.91493    0.77012    0.41505   1.00
C3       0.94904    0.58095    0.42341   1.00
C3       0.91285    0.74863    0.44996   1.00
C3       0.88091    0.58137    0.40696   1.00
C3       0.91677    0.74905    0.37998   1.00
C5       0.98787    0.64272    0.43258   1.00
H1       0.91129    0.69191    0.47746   1.00
H1       0.97541    0.56479    0.42971   1.00
H1       0.91137    0.76401    0.47750   1.00
H1       0.85412    0.56599    0.40042   1.00
H1       0.91836    0.76521    0.35291   1.00
C5       0.91921    0.68728    0.34015   1.00
H1       0.85413    0.63809    0.40052   1.00
H2       0.93145    0.70756    0.31804   1.00
H2       0.93980    0.66231    0.34177   1.00
H2       1.01258    0.62244    0.42725   1.00
H2       0.99227    0.66769    0.41240   1.00
N1       0.88079    0.67357    0.32751   1.00
C6       0.85016    0.69573    0.31800   1.00
C6       0.86999    0.63654    0.32221   1.00
C6       0.81922    0.67259    0.30698   1.00
C6       0.83184    0.63495    0.30965   1.00
H3       0.85003    0.72697    0.31929   1.00
H3       0.88858    0.61200    0.32744   1.00
H3       0.79068    0.68213    0.29798   1.00
H3       0.81508    0.60925    0.30319   1.00
N1       0.98888    0.65643    0.47301   1.00
C6       0.99084    0.69346    0.48489   1.00
C6       0.98914    0.63427    0.50509   1.00
C6       0.99185    0.69505    0.52504   1.00
C6       0.99076    0.65741    0.53789   1.00
H3       0.99120    0.71800    0.46558   1.00
H3       0.98788    0.60303    0.50484   1.00
H3       0.99320    0.72075    0.54295   1.00
H3       0.99114    0.64787    0.56782   1.00
C4       0.68585    0.41516    0.41488   1.00
C4       0.64415    0.41484    0.41512   1.00
C3a      0.70754    0.42368    0.38034   1.00
C3       0.62268    0.44990    0.41729   1.00
C3       0.70732    0.40712    0.44908   1.00
C3a      0.62246    0.37931    0.41330   1.00
C2       0.77012    0.41505    0.41506   1.00
C2       0.55988    0.41505    0.41507   1.00
C3       0.74905    0.42341    0.38096   1.00
C3       0.58137    0.44996    0.41715   1.00
C3       0.74863    0.40696    0.44909   1.00
C3       0.58095    0.37998    0.41323   1.00
C5       0.68728    0.43258    0.34213   1.00
H1       0.63809    0.47746    0.41871   1.00
H1       0.76521    0.42971    0.35459   1.00
H1       0.56599    0.47750    0.41863   1.00
H1       0.76401    0.40042    0.47588   1.00
H1       0.56479    0.35291    0.41164   1.00
C5       0.64272    0.34015    0.41079   1.00
H1       0.69191    0.40052    0.47587   1.00
H2       0.62244    0.31804    0.39855   1.00
H2       0.66769    0.34177    0.39020   1.00
H2       0.70756    0.42725    0.31742   1.00
H2       0.66231    0.41240    0.33773   1.00
N1       0.65643    0.32751    0.44921   1.00
C6       0.63427    0.31800    0.47984   1.00
C6       0.69346    0.32221    0.46001   1.00
C6       0.65741    0.30698    0.51078   1.00
C6       0.69505    0.30965    0.49816   1.00
H3       0.60303    0.31929    0.47997   1.00
H3       0.71800    0.32744    0.44142   1.00
H3       0.64787    0.29798    0.53932   1.00
H3       0.72075    0.30319    0.51492   1.00
N1       0.67357    0.47301    0.34112   1.00
C6       0.63654    0.48489    0.33916   1.00
C6       0.69573    0.50509    0.34086   1.00
C6       0.63495    0.52504    0.33815   1.00
C6       0.67259    0.53789    0.33924   1.00
H3       0.61200    0.46558    0.33880   1.00
H3       0.72697    0.50484    0.34212   1.00
H3       0.60925    0.54295    0.33680   1.00
H3       0.68213    0.56782    0.33886   1.00
C4       1.14415    0.41516    0.41512   1.00
C4       1.18585    0.41484    0.41488   1.00
C3a      1.12246    0.42368    0.44966   1.00
C3       1.20732    0.44990    0.41271   1.00
C3       1.12268    0.40712    0.38092   1.00
C3a      1.20754    0.37931    0.41670   1.00
C2       1.05988    0.41505    0.41494   1.00
C2       1.27012    0.41505    0.41493   1.00
C3       1.08095    0.42341    0.44904   1.00
C3       1.24863    0.44996    0.41285   1.00
C3       1.08137    0.40696    0.38091   1.00
C3       1.24905    0.37998    0.41677   1.00
C5       1.14272    0.43258    0.48787   1.00
H1       1.19191    0.47746    0.41129   1.00
H1       1.06479    0.42971    0.47541   1.00
H1       1.26401    0.47750    0.41137   1.00
H1       1.06599    0.40042    0.35412   1.00
H1       1.26521    0.35291    0.41836   1.00
C5       1.18728    0.34015    0.41921   1.00
H1       1.13809    0.40052    0.35413   1.00
H2       1.20756    0.31804    0.43145   1.00
H2       1.16231    0.34177    0.43980   1.00
H2       1.12244    0.42725    0.51258   1.00
H2       1.16769    0.41240    0.49227   1.00
N1       1.17357    0.32751    0.38079   1.00
C6       1.19573    0.31800    0.35016   1.00
C6       1.13654    0.32221    0.36999   1.00
C6       1.17259    0.30698    0.31922   1.00
C6       1.13495    0.30965    0.33184   1.00
H3       1.22697    0.31929    0.35003   1.00
H3       1.11200    0.32744    0.38858   1.00
H3       1.18213    0.29798    0.29068   1.00
H3       1.10925    0.30319    0.31508   1.00
N1       1.15643    0.47301    0.48888   1.00
C6       1.19346    0.48489    0.49084   1.00
C6       1.13427    0.50509    0.48914   1.00
C6       1.19505    0.52504    0.49185   1.00
C6       1.15741    0.53789    0.49076   1.00
H3       1.21800    0.46558    0.49120   1.00
H3       1.10303    0.50484    0.48788   1.00
H3       1.22075    0.54295    0.49320   1.00
H3       1.14787    0.56782    0.49114   1.00
C4       0.91488    0.18585    0.41516   1.00
C4       0.91512    0.14415    0.41484   1.00
C3a      0.88034    0.20754    0.42368   1.00
C3       0.91729    0.12268    0.44990   1.00
C3       0.94908    0.20732    0.40712   1.00
C3a      0.91330    0.12246    0.37931   1.00
C2       0.91506    0.27012    0.41505   1.00
C2       0.91507    0.05988    0.41505   1.00
C3       0.88096    0.24905    0.42341   1.00
C3       0.91715    0.08137    0.44996   1.00
C3       0.94909    0.24863    0.40696   1.00
C3       0.91323    0.08095    0.37998   1.00
C5       0.84213    0.18728    0.43258   1.00
H1       0.91871    0.13809    0.47746   1.00
H1       0.85459    0.26521    0.42971   1.00
H1       0.91863    0.06599    0.47750   1.00
H1       0.97588    0.26401    0.40042   1.00
H1       0.91164    0.06479    0.35291   1.00
C5       0.91079    0.14272    0.34015   1.00
H1       0.97587    0.19191    0.40052   1.00
H2       0.89855    0.12244    0.31804   1.00
H2       0.89020    0.16769    0.34177   1.00
H2       0.81742    0.20756    0.42725   1.00
H2       0.83773    0.16231    0.41240   1.00
N1       0.94921    0.15643    0.32751   1.00
C6       0.97984    0.13427    0.31800   1.00
C6       0.96001    0.19346    0.32221   1.00
C6       1.01078    0.15741    0.30698   1.00
C6       0.99816    0.19505    0.30965   1.00
H3       0.97997    0.10303    0.31929   1.00
H3       0.94142    0.21800    0.32744   1.00
H3       1.03932    0.14787    0.29798   1.00
H3       1.01492    0.22075    0.30319   1.00
N1       0.84112    0.17357    0.47301   1.00
C6       0.83916    0.13654    0.48489   1.00
C6       0.84086    0.19573    0.50509   1.00
C6       0.83815    0.13495    0.52504   1.00
C6       0.83924    0.17259    0.53789   1.00
H3       0.83880    0.11200    0.46558   1.00
H3       0.84212    0.22697    0.50484   1.00
H3       0.83680    0.10925    0.54295   1.00
H3       0.83886    0.18213    0.56782   1.00
C4       0.91516    0.41488    0.18585   1.00
C4       0.91484    0.41512    0.14415   1.00
C3a      0.92368    0.38034    0.20754   1.00
C3       0.94990    0.41729    0.12268   1.00
C3       0.90712    0.44908    0.20732   1.00
C3a      0.87931    0.41330    0.12246   1.00
C2       0.91505    0.41506    0.27012   1.00
C2       0.91505    0.41507    0.05988   1.00
C3       0.92341    0.38096    0.24905   1.00
C3       0.94996    0.41715    0.08137   1.00
C3       0.90696    0.44909    0.24863   1.00
C3       0.87998    0.41323    0.08095   1.00
C5       0.93258    0.34213    0.18728   1.00
H1       0.97746    0.41871    0.13809   1.00
H1       0.92971    0.35459    0.26521   1.00
H1       0.97750    0.41863    0.06599   1.00
H1       0.90042    0.47588    0.26401   1.00
H1       0.85291    0.41164    0.06479   1.00
C5       0.84015    0.41079    0.14272   1.00
H1       0.90052    0.47587    0.19191   1.00
H2       0.81804    0.39855    0.12244   1.00
H2       0.84177    0.39020    0.16769   1.00
H2       0.92725    0.31742    0.20756   1.00
H2       0.91240    0.33773    0.16231   1.00
N1       0.82751    0.44921    0.15643   1.00
C6       0.81800    0.47984    0.13427   1.00
C6       0.82221    0.46001    0.19346   1.00
C6       0.80698    0.51078    0.15741   1.00
C6       0.80965    0.49816    0.19505   1.00
H3       0.81929    0.47997    0.10303   1.00
H3       0.82744    0.44142    0.21800   1.00
H3       0.79798    0.53932    0.14787   1.00
H3       0.80319    0.51492    0.22075   1.00
N1       0.97301    0.34112    0.17357   1.00
C6       0.98489    0.33916    0.13654   1.00
C6       1.00509    0.34086    0.19573   1.00
C6       1.02504    0.33815    0.13495   1.00
C6       1.03789    0.33924    0.17259   1.00
H3       0.96558    0.33880    0.11200   1.00
H3       1.00484    0.34212    0.22697   1.00
H3       1.04295    0.33680    0.10925   1.00
H3       1.06782    0.33886    0.18213   1.00
