data_IRMOF10_SG202_interpen_Ligand1cp_label_j.

_audit_creation_method             'generated by an auxiliary program of Tobunporous'

_symmetry_space_group_name_H-M     'P 1'
_symmetry_Int_Tables_number        1
_symmetry_cell_setting             triclinic

_cell_length_a                    34.2800
_cell_length_b                    34.2800
_cell_length_c                    34.2800
_cell_angle_alpha                 90.0000
_cell_angle_beta                  90.0000
_cell_angle_gamma                 90.0000

loop_
_atom_site_label
_atom_site_fract_x
_atom_site_fract_y
_atom_site_fract_z
_atom_site_occupancy
O1       0.75000    0.75000    0.75000   1.00
Zn1      0.71720    0.78280    0.78280   1.00
Zn1      0.78280    0.71720    0.78280   1.00
Zn1      0.78280    0.78280    0.71720   1.00
Zn1      0.71720    0.71720    0.71720   1.00
O2       0.72650    0.77350    0.83820   1.00
O2       0.72650    0.83820    0.77350   1.00
O2       0.66180    0.77350    0.77350   1.00
O2       0.77350    0.72650    0.83820   1.00
O2       0.83820    0.72650    0.77350   1.00
O2       0.77350    0.66180    0.77350   1.00
O2       0.77350    0.83820    0.72650   1.00
O2       0.83820    0.77350    0.72650   1.00
O2       0.77350    0.77350    0.66180   1.00
O2       0.66180    0.72650    0.72650   1.00
O2       0.72650    0.66180    0.72650   1.00
O2       0.72650    0.72650    0.66180   1.00
C1       0.75000    0.75000    0.85520   1.00
C1       0.75000    0.85520    0.75000   1.00
C1       0.64480    0.75000    0.75000   1.00
C1       0.85520    0.75000    0.75000   1.00
C1       0.75000    0.64480    0.75000   1.00
C1       0.75000    0.75000    0.64480   1.00
O1       0.25000    0.25000    0.75000   1.00
Zn1      0.21720    0.28280    0.78280   1.00
Zn1      0.28280    0.21720    0.78280   1.00
Zn1      0.28280    0.28280    0.71720   1.00
Zn1      0.21720    0.21720    0.71720   1.00
O2       0.22650    0.27350    0.83820   1.00
O2       0.22650    0.33820    0.77350   1.00
O2       0.16180    0.27350    0.77350   1.00
O2       0.27350    0.22650    0.83820   1.00
O2       0.33820    0.22650    0.77350   1.00
O2       0.27350    0.16180    0.77350   1.00
O2       0.27350    0.33820    0.72650   1.00
O2       0.33820    0.27350    0.72650   1.00
O2       0.27350    0.27350    0.66180   1.00
O2       0.16180    0.22650    0.72650   1.00
O2       0.22650    0.16180    0.72650   1.00
O2       0.22650    0.22650    0.66180   1.00
C1       0.25000    0.25000    0.85520   1.00
C1       0.25000    0.35520    0.75000   1.00
C1       0.14480    0.25000    0.75000   1.00
C1       0.35520    0.25000    0.75000   1.00
C1       0.25000    0.14480    0.75000   1.00
C1       0.25000    0.25000    0.64480   1.00
O1       0.25000    0.75000    0.25000   1.00
Zn1      0.21720    0.78280    0.28280   1.00
Zn1      0.28280    0.71720    0.28280   1.00
Zn1      0.28280    0.78280    0.21720   1.00
Zn1      0.21720    0.71720    0.21720   1.00
O2       0.22650    0.77350    0.33820   1.00
O2       0.22650    0.83820    0.27350   1.00
O2       0.16180    0.77350    0.27350   1.00
O2       0.27350    0.72650    0.33820   1.00
O2       0.33820    0.72650    0.27350   1.00
O2       0.27350    0.66180    0.27350   1.00
O2       0.27350    0.83820    0.22650   1.00
O2       0.33820    0.77350    0.22650   1.00
O2       0.27350    0.77350    0.16180   1.00
O2       0.16180    0.72650    0.22650   1.00
O2       0.22650    0.66180    0.22650   1.00
O2       0.22650    0.72650    0.16180   1.00
C1       0.25000    0.75000    0.35520   1.00
C1       0.25000    0.85520    0.25000   1.00
C1       0.14480    0.75000    0.25000   1.00
C1       0.35520    0.75000    0.25000   1.00
C1       0.25000    0.64480    0.25000   1.00
C1       0.25000    0.75000    0.14480   1.00
O1       0.75000    0.25000    0.25000   1.00
Zn1      0.71720    0.28280    0.28280   1.00
Zn1      0.78280    0.21720    0.28280   1.00
Zn1      0.78280    0.28280    0.21720   1.00
Zn1      0.71720    0.21720    0.21720   1.00
O2       0.72650    0.27350    0.33820   1.00
O2       0.72650    0.33820    0.27350   1.00
O2       0.66180    0.27350    0.27350   1.00
O2       0.77350    0.22650    0.33820   1.00
O2       0.83820    0.22650    0.27350   1.00
O2       0.77350    0.16180    0.27350   1.00
O2       0.77350    0.33820    0.22650   1.00
O2       0.83820    0.27350    0.22650   1.00
O2       0.77350    0.27350    0.16180   1.00
O2       0.66180    0.22650    0.22650   1.00
O2       0.72650    0.16180    0.22650   1.00
O2       0.72650    0.22650    0.16180   1.00
C1       0.75000    0.25000    0.35520   1.00
C1       0.75000    0.35520    0.25000   1.00
C1       0.64480    0.25000    0.25000   1.00
C1       0.85520    0.25000    0.25000   1.00
C1       0.75000    0.14480    0.25000   1.00
C1       0.75000    0.25000    0.14480   1.00
O1       0.25000    0.25000    0.25000   1.00
Zn1      0.28280    0.21720    0.21720   1.00
Zn1      0.21720    0.28280    0.21720   1.00
Zn1      0.21720    0.21720    0.28280   1.00
Zn1      0.28280    0.28280    0.28280   1.00
O2       0.27350    0.22650    0.16180   1.00
O2       0.27350    0.16180    0.22650   1.00
O2       0.33820    0.22650    0.22650   1.00
O2       0.22650    0.27350    0.16180   1.00
O2       0.16180    0.27350    0.22650   1.00
O2       0.22650    0.33820    0.22650   1.00
O2       0.22650    0.16180    0.27350   1.00
O2       0.16180    0.22650    0.27350   1.00
O2       0.22650    0.22650    0.33820   1.00
O2       0.33820    0.27350    0.27350   1.00
O2       0.27350    0.33820    0.27350   1.00
O2       0.27350    0.27350    0.33820   1.00
C1       0.25000    0.25000    0.14480   1.00
C1       0.25000    0.14480    0.25000   1.00
C1       0.35520    0.25000    0.25000   1.00
C1       0.14480    0.25000    0.25000   1.00
C1       0.25000    0.35520    0.25000   1.00
C1       0.25000    0.25000    0.35520   1.00
O1       0.75000    0.75000    0.25000   1.00
Zn1      0.78280    0.71720    0.21720   1.00
Zn1      0.71720    0.78280    0.21720   1.00
Zn1      0.71720    0.71720    0.28280   1.00
Zn1      0.78280    0.78280    0.28280   1.00
O2       0.77350    0.72650    0.16180   1.00
O2       0.77350    0.66180    0.22650   1.00
O2       0.83820    0.72650    0.22650   1.00
O2       0.72650    0.77350    0.16180   1.00
O2       0.66180    0.77350    0.22650   1.00
O2       0.72650    0.83820    0.22650   1.00
O2       0.72650    0.66180    0.27350   1.00
O2       0.66180    0.72650    0.27350   1.00
O2       0.72650    0.72650    0.33820   1.00
O2       0.83820    0.77350    0.27350   1.00
O2       0.77350    0.83820    0.27350   1.00
O2       0.77350    0.77350    0.33820   1.00
C1       0.75000    0.75000    0.14480   1.00
C1       0.75000    0.64480    0.25000   1.00
C1       0.85520    0.75000    0.25000   1.00
C1       0.64480    0.75000    0.25000   1.00
C1       0.75000    0.85520    0.25000   1.00
C1       0.75000    0.75000    0.35520   1.00
O1       0.75000    0.25000    0.75000   1.00
Zn1      0.78280    0.21720    0.71720   1.00
Zn1      0.71720    0.28280    0.71720   1.00
Zn1      0.71720    0.21720    0.78280   1.00
Zn1      0.78280    0.28280    0.78280   1.00
O2       0.77350    0.22650    0.66180   1.00
O2       0.77350    0.16180    0.72650   1.00
O2       0.83820    0.22650    0.72650   1.00
O2       0.72650    0.27350    0.66180   1.00
O2       0.66180    0.27350    0.72650   1.00
O2       0.72650    0.33820    0.72650   1.00
O2       0.72650    0.16180    0.77350   1.00
O2       0.66180    0.22650    0.77350   1.00
O2       0.72650    0.22650    0.83820   1.00
O2       0.83820    0.27350    0.77350   1.00
O2       0.77350    0.33820    0.77350   1.00
O2       0.77350    0.27350    0.83820   1.00
C1       0.75000    0.25000    0.64480   1.00
C1       0.75000    0.14480    0.75000   1.00
C1       0.85520    0.25000    0.75000   1.00
C1       0.64480    0.25000    0.75000   1.00
C1       0.75000    0.35520    0.75000   1.00
C1       0.75000    0.25000    0.85520   1.00
O1       0.25000    0.75000    0.75000   1.00
Zn1      0.28280    0.71720    0.71720   1.00
Zn1      0.21720    0.78280    0.71720   1.00
Zn1      0.21720    0.71720    0.78280   1.00
Zn1      0.28280    0.78280    0.78280   1.00
O2       0.27350    0.72650    0.66180   1.00
O2       0.27350    0.66180    0.72650   1.00
O2       0.33820    0.72650    0.72650   1.00
O2       0.22650    0.77350    0.66180   1.00
O2       0.16180    0.77350    0.72650   1.00
O2       0.22650    0.83820    0.72650   1.00
O2       0.22650    0.66180    0.77350   1.00
O2       0.16180    0.72650    0.77350   1.00
O2       0.22650    0.72650    0.83820   1.00
O2       0.33820    0.77350    0.77350   1.00
O2       0.27350    0.83820    0.77350   1.00
O2       0.27350    0.77350    0.83820   1.00
C1       0.25000    0.75000    0.64480   1.00
C1       0.25000    0.64480    0.75000   1.00
C1       0.35520    0.75000    0.75000   1.00
C1       0.14480    0.75000    0.75000   1.00
C1       0.25000    0.85520    0.75000   1.00
C1       0.25000    0.75000    0.85520   1.00
O1       0.91500    0.91500    0.91500   1.00
Zn1      0.88220    0.94780    0.94780   1.00
Zn1      0.94780    0.88220    0.94780   1.00
Zn1      0.94780    0.94780    0.88220   1.00
Zn1      0.88220    0.88220    0.88220   1.00
O2       0.89150    0.93850    1.00320   1.00
O2       0.89150    1.00320    0.93850   1.00
O2       0.82680    0.93850    0.93850   1.00
O2       0.93850    0.89150    1.00320   1.00
O2       1.00320    0.89150    0.93850   1.00
O2       0.93850    0.82680    0.93850   1.00
O2       0.93850    1.00320    0.89150   1.00
O2       1.00320    0.93850    0.89150   1.00
O2       0.93850    0.93850    0.82680   1.00
O2       0.82680    0.89150    0.89150   1.00
O2       0.89150    0.82680    0.89150   1.00
O2       0.89150    0.89150    0.82680   1.00
C1       0.91500    0.91500    1.02020   1.00
C1       0.91500    1.02020    0.91500   1.00
C1       0.80980    0.91500    0.91500   1.00
C1       1.02020    0.91500    0.91500   1.00
C1       0.91500    0.80980    0.91500   1.00
C1       0.91500    0.91500    0.80980   1.00
O1       0.41500    0.41500    0.91500   1.00
Zn1      0.38220    0.44780    0.94780   1.00
Zn1      0.44780    0.38220    0.94780   1.00
Zn1      0.44780    0.44780    0.88220   1.00
Zn1      0.38220    0.38220    0.88220   1.00
O2       0.39150    0.43850    1.00320   1.00
O2       0.39150    0.50320    0.93850   1.00
O2       0.32680    0.43850    0.93850   1.00
O2       0.43850    0.39150    1.00320   1.00
O2       0.50320    0.39150    0.93850   1.00
O2       0.43850    0.32680    0.93850   1.00
O2       0.43850    0.50320    0.89150   1.00
O2       0.50320    0.43850    0.89150   1.00
O2       0.43850    0.43850    0.82680   1.00
O2       0.32680    0.39150    0.89150   1.00
O2       0.39150    0.32680    0.89150   1.00
O2       0.39150    0.39150    0.82680   1.00
C1       0.41500    0.41500    1.02020   1.00
C1       0.41500    0.52020    0.91500   1.00
C1       0.30980    0.41500    0.91500   1.00
C1       0.52020    0.41500    0.91500   1.00
C1       0.41500    0.30980    0.91500   1.00
C1       0.41500    0.41500    0.80980   1.00
O1       0.41500    0.91500    0.41500   1.00
Zn1      0.38220    0.94780    0.44780   1.00
Zn1      0.44780    0.88220    0.44780   1.00
Zn1      0.44780    0.94780    0.38220   1.00
Zn1      0.38220    0.88220    0.38220   1.00
O2       0.39150    0.93850    0.50320   1.00
O2       0.39150    1.00320    0.43850   1.00
O2       0.32680    0.93850    0.43850   1.00
O2       0.43850    0.89150    0.50320   1.00
O2       0.50320    0.89150    0.43850   1.00
O2       0.43850    0.82680    0.43850   1.00
O2       0.43850    1.00320    0.39150   1.00
O2       0.50320    0.93850    0.39150   1.00
O2       0.43850    0.93850    0.32680   1.00
O2       0.32680    0.89150    0.39150   1.00
O2       0.39150    0.82680    0.39150   1.00
O2       0.39150    0.89150    0.32680   1.00
C1       0.41500    0.91500    0.52020   1.00
C1       0.41500    1.02020    0.41500   1.00
C1       0.30980    0.91500    0.41500   1.00
C1       0.52020    0.91500    0.41500   1.00
C1       0.41500    0.80980    0.41500   1.00
C1       0.41500    0.91500    0.30980   1.00
O1       0.91500    0.41500    0.41500   1.00
Zn1      0.88220    0.44780    0.44780   1.00
Zn1      0.94780    0.38220    0.44780   1.00
Zn1      0.94780    0.44780    0.38220   1.00
Zn1      0.88220    0.38220    0.38220   1.00
O2       0.89150    0.43850    0.50320   1.00
O2       0.89150    0.50320    0.43850   1.00
O2       0.82680    0.43850    0.43850   1.00
O2       0.93850    0.39150    0.50320   1.00
O2       1.00320    0.39150    0.43850   1.00
O2       0.93850    0.32680    0.43850   1.00
O2       0.93850    0.50320    0.39150   1.00
O2       1.00320    0.43850    0.39150   1.00
O2       0.93850    0.43850    0.32680   1.00
O2       0.82680    0.39150    0.39150   1.00
O2       0.89150    0.32680    0.39150   1.00
O2       0.89150    0.39150    0.32680   1.00
C1       0.91500    0.41500    0.52020   1.00
C1       0.91500    0.52020    0.41500   1.00
C1       0.80980    0.41500    0.41500   1.00
C1       1.02020    0.41500    0.41500   1.00
C1       0.91500    0.30980    0.41500   1.00
C1       0.91500    0.41500    0.30980   1.00
O1       0.41500    0.41500    0.41500   1.00
Zn1      0.44780    0.38220    0.38220   1.00
Zn1      0.38220    0.44780    0.38220   1.00
Zn1      0.38220    0.38220    0.44780   1.00
Zn1      0.44780    0.44780    0.44780   1.00
O2       0.43850    0.39150    0.32680   1.00
O2       0.43850    0.32680    0.39150   1.00
O2       0.50320    0.39150    0.39150   1.00
O2       0.39150    0.43850    0.32680   1.00
O2       0.32680    0.43850    0.39150   1.00
O2       0.39150    0.50320    0.39150   1.00
O2       0.39150    0.32680    0.43850   1.00
O2       0.32680    0.39150    0.43850   1.00
O2       0.39150    0.39150    0.50320   1.00
O2       0.50320    0.43850    0.43850   1.00
O2       0.43850    0.50320    0.43850   1.00
O2       0.43850    0.43850    0.50320   1.00
C1       0.41500    0.41500    0.30980   1.00
C1       0.41500    0.30980    0.41500   1.00
C1       0.52020    0.41500    0.41500   1.00
C1       0.30980    0.41500    0.41500   1.00
C1       0.41500    0.52020    0.41500   1.00
C1       0.41500    0.41500    0.52020   1.00
O1       0.91500    0.91500    0.41500   1.00
Zn1      0.94780    0.88220    0.38220   1.00
Zn1      0.88220    0.94780    0.38220   1.00
Zn1      0.88220    0.88220    0.44780   1.00
Zn1      0.94780    0.94780    0.44780   1.00
O2       0.93850    0.89150    0.32680   1.00
O2       0.93850    0.82680    0.39150   1.00
O2       1.00320    0.89150    0.39150   1.00
O2       0.89150    0.93850    0.32680   1.00
O2       0.82680    0.93850    0.39150   1.00
O2       0.89150    1.00320    0.39150   1.00
O2       0.89150    0.82680    0.43850   1.00
O2       0.82680    0.89150    0.43850   1.00
O2       0.89150    0.89150    0.50320   1.00
O2       1.00320    0.93850    0.43850   1.00
O2       0.93850    1.00320    0.43850   1.00
O2       0.93850    0.93850    0.50320   1.00
C1       0.91500    0.91500    0.30980   1.00
C1       0.91500    0.80980    0.41500   1.00
C1       1.02020    0.91500    0.41500   1.00
C1       0.80980    0.91500    0.41500   1.00
C1       0.91500    1.02020    0.41500   1.00
C1       0.91500    0.91500    0.52020   1.00
O1       0.91500    0.41500    0.91500   1.00
Zn1      0.94780    0.38220    0.88220   1.00
Zn1      0.88220    0.44780    0.88220   1.00
Zn1      0.88220    0.38220    0.94780   1.00
Zn1      0.94780    0.44780    0.94780   1.00
O2       0.93850    0.39150    0.82680   1.00
O2       0.93850    0.32680    0.89150   1.00
O2       1.00320    0.39150    0.89150   1.00
O2       0.89150    0.43850    0.82680   1.00
O2       0.82680    0.43850    0.89150   1.00
O2       0.89150    0.50320    0.89150   1.00
O2       0.89150    0.32680    0.93850   1.00
O2       0.82680    0.39150    0.93850   1.00
O2       0.89150    0.39150    1.00320   1.00
O2       1.00320    0.43850    0.93850   1.00
O2       0.93850    0.50320    0.93850   1.00
O2       0.93850    0.43850    1.00320   1.00
C1       0.91500    0.41500    0.80980   1.00
C1       0.91500    0.30980    0.91500   1.00
C1       1.02020    0.41500    0.91500   1.00
C1       0.80980    0.41500    0.91500   1.00
C1       0.91500    0.52020    0.91500   1.00
C1       0.91500    0.41500    1.02020   1.00
O1       0.41500    0.91500    0.91500   1.00
Zn1      0.44780    0.88220    0.88220   1.00
Zn1      0.38220    0.94780    0.88220   1.00
Zn1      0.38220    0.88220    0.94780   1.00
Zn1      0.44780    0.94780    0.94780   1.00
O2       0.43850    0.89150    0.82680   1.00
O2       0.43850    0.82680    0.89150   1.00
O2       0.50320    0.89150    0.89150   1.00
O2       0.39150    0.93850    0.82680   1.00
O2       0.32680    0.93850    0.89150   1.00
O2       0.39150    1.00320    0.89150   1.00
O2       0.39150    0.82680    0.93850   1.00
O2       0.32680    0.89150    0.93850   1.00
O2       0.39150    0.89150    1.00320   1.00
O2       0.50320    0.93850    0.93850   1.00
O2       0.43850    1.00320    0.93850   1.00
O2       0.43850    0.93850    1.00320   1.00
C1       0.41500    0.91500    0.80980   1.00
C1       0.41500    0.80980    0.91500   1.00
C1       0.52020    0.91500    0.91500   1.00
C1       0.30980    0.91500    0.91500   1.00
C1       0.41500    1.02020    0.91500   1.00
C1       0.41500    0.91500    1.02020   1.00
C2       0.75215    0.75208    0.89757   1.00
C3a      0.78605    0.76045    0.91884   1.00
H1       0.81290    0.76756    0.90369   1.00
C3a      0.71740    0.74287    0.91704   1.00
H1       0.69121    0.73641    0.90051   1.00
C3b      0.78558    0.75973    0.95938   1.00
C5       0.82254    0.76888    0.98144   1.00
H2       0.83101    0.74363    0.99984   1.00
H2       0.84728    0.77551    0.96161   1.00
H2       0.81795    0.79455    1.00060   1.00
C3b      0.71617    0.74196    0.95756   1.00
C5       0.67832    0.73195    0.97767   1.00
H2       0.66906    0.75644    0.99670   1.00
H2       0.65444    0.72614    0.95655   1.00
H2       0.68212    0.70552    0.99594   1.00
C4       0.75045    0.75043    0.97873   1.00
C4       0.74955    0.74957    1.02127   1.00
C3b      0.75803    0.71445    1.04101   1.00
C5       0.76806    0.67746    1.01937   1.00
H2       0.79451    0.68203    1.00129   1.00
H2       0.77387    0.65274    1.03949   1.00
H2       0.74360    0.66899    0.99995   1.00
C3b      0.74023    0.78387    1.04204   1.00
C5       0.73108    0.82171    1.02152   1.00
H2       0.70542    0.81790    1.00217   1.00
H2       0.72441    0.84560    1.04235   1.00
H2       0.75633    0.83094    1.00350   1.00
C3a      0.75708    0.71401    1.08155   1.00
H1       0.76355    0.68717    1.09700   1.00
C3a      0.73947    0.78267    1.08257   1.00
H1       0.73234    0.80887    1.09881   1.00
C2       0.74785    0.74792    1.10243   1.00
C2       0.75208    0.89757    0.75215   1.00
C3a      0.76045    0.91884    0.78605   1.00
H1       0.76756    0.90369    0.81290   1.00
C3a      0.74287    0.91704    0.71740   1.00
H1       0.73641    0.90051    0.69121   1.00
C3b      0.75973    0.95938    0.78558   1.00
C5       0.76888    0.98144    0.82254   1.00
H2       0.74363    0.99984    0.83101   1.00
H2       0.77551    0.96161    0.84728   1.00
H2       0.79455    1.00060    0.81795   1.00
C3b      0.74196    0.95756    0.71617   1.00
C5       0.73195    0.97767    0.67832   1.00
H2       0.75644    0.99670    0.66906   1.00
H2       0.72614    0.95655    0.65444   1.00
H2       0.70552    0.99594    0.68212   1.00
C4       0.75043    0.97873    0.75045   1.00
C4       0.74957    1.02127    0.74955   1.00
C3b      0.71445    1.04101    0.75803   1.00
C5       0.67746    1.01937    0.76806   1.00
H2       0.68203    1.00129    0.79451   1.00
H2       0.65274    1.03949    0.77387   1.00
H2       0.66899    0.99995    0.74360   1.00
C3b      0.78387    1.04204    0.74023   1.00
C5       0.82171    1.02152    0.73108   1.00
H2       0.81790    1.00217    0.70542   1.00
H2       0.84560    1.04235    0.72441   1.00
H2       0.83094    1.00350    0.75633   1.00
C3a      0.71401    1.08155    0.75708   1.00
H1       0.68717    1.09700    0.76355   1.00
C3a      0.78267    1.08257    0.73947   1.00
H1       0.80887    1.09881    0.73234   1.00
C2       0.74792    1.10243    0.74785   1.00
C2       0.60243    0.75215    0.74792   1.00
C3a      0.58116    0.78605    0.73955   1.00
H1       0.59631    0.81290    0.73244   1.00
C3a      0.58296    0.71740    0.75713   1.00
H1       0.59949    0.69121    0.76359   1.00
C3b      0.54062    0.78558    0.74027   1.00
C5       0.51856    0.82254    0.73112   1.00
H2       0.50016    0.83101    0.75637   1.00
H2       0.53839    0.84728    0.72449   1.00
H2       0.49940    0.81795    0.70545   1.00
C3b      0.54244    0.71617    0.75804   1.00
C5       0.52233    0.67832    0.76805   1.00
H2       0.50330    0.66906    0.74356   1.00
H2       0.54345    0.65444    0.77386   1.00
H2       0.50406    0.68212    0.79448   1.00
C4       0.52127    0.75045    0.74957   1.00
C4       0.47873    0.74955    0.75043   1.00
C3b      0.45899    0.75803    0.78555   1.00
C5       0.48063    0.76806    0.82254   1.00
H2       0.49871    0.79451    0.81797   1.00
H2       0.46051    0.77387    0.84726   1.00
H2       0.50005    0.74360    0.83101   1.00
C3b      0.45796    0.74023    0.71613   1.00
C5       0.47848    0.73108    0.67829   1.00
H2       0.49783    0.70542    0.68210   1.00
H2       0.45765    0.72441    0.65440   1.00
H2       0.49650    0.75633    0.66906   1.00
C3a      0.41845    0.75708    0.78599   1.00
H1       0.40300    0.76355    0.81283   1.00
C3a      0.41743    0.73947    0.71733   1.00
H1       0.40119    0.73234    0.69113   1.00
C2       0.39757    0.74785    0.75208   1.00
C2       0.89757    0.75215    0.75208   1.00
C3a      0.91884    0.78605    0.76045   1.00
H1       0.90369    0.81290    0.76756   1.00
C3a      0.91704    0.71740    0.74287   1.00
H1       0.90051    0.69121    0.73641   1.00
C3b      0.95938    0.78558    0.75973   1.00
C5       0.98144    0.82254    0.76888   1.00
H2       0.99984    0.83101    0.74363   1.00
H2       0.96161    0.84728    0.77551   1.00
H2       1.00060    0.81795    0.79455   1.00
C3b      0.95756    0.71617    0.74196   1.00
C5       0.97767    0.67832    0.73195   1.00
H2       0.99670    0.66906    0.75644   1.00
H2       0.95655    0.65444    0.72614   1.00
H2       0.99594    0.68212    0.70552   1.00
C4       0.97873    0.75045    0.75043   1.00
C4       1.02127    0.74955    0.74957   1.00
C3b      1.04101    0.75803    0.71445   1.00
C5       1.01937    0.76806    0.67746   1.00
H2       1.00129    0.79451    0.68203   1.00
H2       1.03949    0.77387    0.65274   1.00
H2       0.99995    0.74360    0.66899   1.00
C3b      1.04204    0.74023    0.78387   1.00
C5       1.02152    0.73108    0.82171   1.00
H2       1.00217    0.70542    0.81790   1.00
H2       1.04235    0.72441    0.84560   1.00
H2       1.00350    0.75633    0.83094   1.00
C3a      1.08155    0.75708    0.71401   1.00
H1       1.09700    0.76355    0.68717   1.00
C3a      1.08257    0.73947    0.78267   1.00
H1       1.09881    0.73234    0.80887   1.00
C2       1.10243    0.74785    0.74792   1.00
C2       0.74792    0.60243    0.75215   1.00
C3a      0.73955    0.58116    0.78605   1.00
H1       0.73244    0.59631    0.81290   1.00
C3a      0.75713    0.58296    0.71740   1.00
H1       0.76359    0.59949    0.69121   1.00
C3b      0.74027    0.54062    0.78558   1.00
C5       0.73112    0.51856    0.82254   1.00
H2       0.75637    0.50016    0.83101   1.00
H2       0.72449    0.53839    0.84728   1.00
H2       0.70545    0.49940    0.81795   1.00
C3b      0.75804    0.54244    0.71617   1.00
C5       0.76805    0.52233    0.67832   1.00
H2       0.74356    0.50330    0.66906   1.00
H2       0.77386    0.54345    0.65444   1.00
H2       0.79448    0.50406    0.68212   1.00
C4       0.74957    0.52127    0.75045   1.00
C4       0.75043    0.47873    0.74955   1.00
C3b      0.78555    0.45899    0.75803   1.00
C5       0.82254    0.48063    0.76806   1.00
H2       0.81797    0.49871    0.79451   1.00
H2       0.84726    0.46051    0.77387   1.00
H2       0.83101    0.50005    0.74360   1.00
C3b      0.71613    0.45796    0.74023   1.00
C5       0.67829    0.47848    0.73108   1.00
H2       0.68210    0.49783    0.70542   1.00
H2       0.65440    0.45765    0.72441   1.00
H2       0.66906    0.49650    0.75633   1.00
C3a      0.78599    0.41845    0.75708   1.00
H1       0.81283    0.40300    0.76355   1.00
C3a      0.71733    0.41743    0.73947   1.00
H1       0.69113    0.40119    0.73234   1.00
C2       0.75208    0.39757    0.74785   1.00
C2       0.75215    0.74792    0.60243   1.00
C3a      0.78605    0.73955    0.58116   1.00
H1       0.81290    0.73244    0.59631   1.00
C3a      0.71740    0.75713    0.58296   1.00
H1       0.69121    0.76359    0.59949   1.00
C3b      0.78558    0.74027    0.54062   1.00
C5       0.82254    0.73112    0.51856   1.00
H2       0.83101    0.75637    0.50016   1.00
H2       0.84728    0.72449    0.53839   1.00
H2       0.81795    0.70545    0.49940   1.00
C3b      0.71617    0.75804    0.54244   1.00
C5       0.67832    0.76805    0.52233   1.00
H2       0.66906    0.74356    0.50330   1.00
H2       0.65444    0.77386    0.54345   1.00
H2       0.68212    0.79448    0.50406   1.00
C4       0.75045    0.74957    0.52127   1.00
C4       0.74955    0.75043    0.47873   1.00
C3b      0.75803    0.78555    0.45899   1.00
C5       0.76806    0.82254    0.48063   1.00
H2       0.79451    0.81797    0.49871   1.00
H2       0.77387    0.84726    0.46051   1.00
H2       0.74360    0.83101    0.50005   1.00
C3b      0.74023    0.71613    0.45796   1.00
C5       0.73108    0.67829    0.47848   1.00
H2       0.70542    0.68210    0.49783   1.00
H2       0.72441    0.65440    0.45765   1.00
H2       0.75633    0.66906    0.49650   1.00
C3a      0.75708    0.78599    0.41845   1.00
H1       0.76355    0.81283    0.40300   1.00
C3a      0.73947    0.71733    0.41743   1.00
H1       0.73234    0.69113    0.40119   1.00
C2       0.74785    0.75208    0.39757   1.00
C2       0.25215    0.25208    0.89757   1.00
C3a      0.28605    0.26045    0.91884   1.00
H1       0.31290    0.26756    0.90369   1.00
C3a      0.21740    0.24287    0.91704   1.00
H1       0.19121    0.23641    0.90051   1.00
C3b      0.28558    0.25973    0.95938   1.00
C5       0.32254    0.26888    0.98144   1.00
H2       0.33101    0.24363    0.99984   1.00
H2       0.34728    0.27551    0.96161   1.00
H2       0.31795    0.29455    1.00060   1.00
C3b      0.21617    0.24196    0.95756   1.00
C5       0.17832    0.23195    0.97767   1.00
H2       0.16906    0.25644    0.99670   1.00
H2       0.15444    0.22614    0.95655   1.00
H2       0.18212    0.20552    0.99594   1.00
C4       0.25045    0.25043    0.97873   1.00
C4       0.24955    0.24957    1.02127   1.00
C3b      0.25803    0.21445    1.04101   1.00
C5       0.26806    0.17746    1.01937   1.00
H2       0.29451    0.18203    1.00129   1.00
H2       0.27387    0.15274    1.03949   1.00
H2       0.24360    0.16899    0.99995   1.00
C3b      0.24023    0.28387    1.04204   1.00
C5       0.23108    0.32171    1.02152   1.00
H2       0.20542    0.31790    1.00217   1.00
H2       0.22441    0.34560    1.04235   1.00
H2       0.25633    0.33094    1.00350   1.00
C3a      0.25708    0.21401    1.08155   1.00
H1       0.26355    0.18717    1.09700   1.00
C3a      0.23947    0.28267    1.08257   1.00
H1       0.23234    0.30887    1.09881   1.00
C2       0.24785    0.24792    1.10243   1.00
C2       0.25208    0.39757    0.75215   1.00
C3a      0.26045    0.41884    0.78605   1.00
H1       0.26756    0.40369    0.81290   1.00
C3a      0.24287    0.41704    0.71740   1.00
H1       0.23641    0.40051    0.69121   1.00
C3b      0.25973    0.45938    0.78558   1.00
C5       0.26888    0.48144    0.82254   1.00
H2       0.24363    0.49984    0.83101   1.00
H2       0.27551    0.46161    0.84728   1.00
H2       0.29455    0.50060    0.81795   1.00
C3b      0.24196    0.45756    0.71617   1.00
C5       0.23195    0.47767    0.67832   1.00
H2       0.25644    0.49670    0.66906   1.00
H2       0.22614    0.45655    0.65444   1.00
H2       0.20552    0.49594    0.68212   1.00
C4       0.25043    0.47873    0.75045   1.00
C4       0.24957    0.52127    0.74955   1.00
C3b      0.21445    0.54101    0.75803   1.00
C5       0.17746    0.51937    0.76806   1.00
H2       0.18203    0.50129    0.79451   1.00
H2       0.15274    0.53949    0.77387   1.00
H2       0.16899    0.49995    0.74360   1.00
C3b      0.28387    0.54204    0.74023   1.00
C5       0.32171    0.52152    0.73108   1.00
H2       0.31790    0.50217    0.70542   1.00
H2       0.34560    0.54235    0.72441   1.00
H2       0.33094    0.50350    0.75633   1.00
C3a      0.21401    0.58155    0.75708   1.00
H1       0.18717    0.59700    0.76355   1.00
C3a      0.28267    0.58257    0.73947   1.00
H1       0.30887    0.59881    0.73234   1.00
C2       0.24792    0.60243    0.74785   1.00
C2       0.10243    0.25215    0.74792   1.00
C3a      0.08116    0.28605    0.73955   1.00
H1       0.09631    0.31290    0.73244   1.00
C3a      0.08296    0.21740    0.75713   1.00
H1       0.09949    0.19121    0.76359   1.00
C3b      0.04062    0.28558    0.74027   1.00
C5       0.01856    0.32254    0.73112   1.00
H2       0.00016    0.33101    0.75637   1.00
H2       0.03839    0.34728    0.72449   1.00
H2       -0.00060   0.31795    0.70545   1.00
C3b      0.04244    0.21617    0.75804   1.00
C5       0.02233    0.17832    0.76805   1.00
H2       0.00330    0.16906    0.74356   1.00
H2       0.04345    0.15444    0.77386   1.00
H2       0.00406    0.18212    0.79448   1.00
C4       0.02127    0.25045    0.74957   1.00
C4       -0.02127   0.24955    0.75043   1.00
C3b      -0.04101   0.25803    0.78555   1.00
C5       -0.01937   0.26806    0.82254   1.00
H2       -0.00129   0.29451    0.81797   1.00
H2       -0.03949   0.27387    0.84726   1.00
H2       0.00005    0.24360    0.83101   1.00
C3b      -0.04204   0.24023    0.71613   1.00
C5       -0.02152   0.23108    0.67829   1.00
H2       -0.00217   0.20542    0.68210   1.00
H2       -0.04235   0.22441    0.65440   1.00
H2       -0.00350   0.25633    0.66906   1.00
C3a      -0.08155   0.25708    0.78599   1.00
H1       -0.09700   0.26355    0.81283   1.00
C3a      -0.08257   0.23947    0.71733   1.00
H1       -0.09881   0.23234    0.69113   1.00
C2       -0.10243   0.24785    0.75208   1.00
C2       0.39757    0.25215    0.75208   1.00
C3a      0.41884    0.28605    0.76045   1.00
H1       0.40369    0.31290    0.76756   1.00
C3a      0.41704    0.21740    0.74287   1.00
H1       0.40051    0.19121    0.73641   1.00
C3b      0.45938    0.28558    0.75973   1.00
C5       0.48144    0.32254    0.76888   1.00
H2       0.49984    0.33101    0.74363   1.00
H2       0.46161    0.34728    0.77551   1.00
H2       0.50060    0.31795    0.79455   1.00
C3b      0.45756    0.21617    0.74196   1.00
C5       0.47767    0.17832    0.73195   1.00
H2       0.49670    0.16906    0.75644   1.00
H2       0.45655    0.15444    0.72614   1.00
H2       0.49594    0.18212    0.70552   1.00
C4       0.47873    0.25045    0.75043   1.00
C4       0.52127    0.24955    0.74957   1.00
C3b      0.54101    0.25803    0.71445   1.00
C5       0.51937    0.26806    0.67746   1.00
H2       0.50129    0.29451    0.68203   1.00
H2       0.53949    0.27387    0.65274   1.00
H2       0.49995    0.24360    0.66899   1.00
C3b      0.54204    0.24023    0.78387   1.00
C5       0.52152    0.23108    0.82171   1.00
H2       0.50217    0.20542    0.81790   1.00
H2       0.54235    0.22441    0.84560   1.00
H2       0.50350    0.25633    0.83094   1.00
C3a      0.58155    0.25708    0.71401   1.00
H1       0.59700    0.26355    0.68717   1.00
C3a      0.58257    0.23947    0.78267   1.00
H1       0.59881    0.23234    0.80887   1.00
C2       0.60243    0.24785    0.74792   1.00
C2       0.24792    0.10243    0.75215   1.00
C3a      0.23955    0.08116    0.78605   1.00
H1       0.23244    0.09631    0.81290   1.00
C3a      0.25713    0.08296    0.71740   1.00
H1       0.26359    0.09949    0.69121   1.00
C3b      0.24027    0.04062    0.78558   1.00
C5       0.23112    0.01856    0.82254   1.00
H2       0.25637    0.00016    0.83101   1.00
H2       0.22449    0.03839    0.84728   1.00
H2       0.20545    -0.00060   0.81795   1.00
C3b      0.25804    0.04244    0.71617   1.00
C5       0.26805    0.02233    0.67832   1.00
H2       0.24356    0.00330    0.66906   1.00
H2       0.27386    0.04345    0.65444   1.00
H2       0.29448    0.00406    0.68212   1.00
C4       0.24957    0.02127    0.75045   1.00
C4       0.25043    -0.02127   0.74955   1.00
C3b      0.28555    -0.04101   0.75803   1.00
C5       0.32254    -0.01937   0.76806   1.00
H2       0.31797    -0.00129   0.79451   1.00
H2       0.34726    -0.03949   0.77387   1.00
H2       0.33101    0.00005    0.74360   1.00
C3b      0.21613    -0.04204   0.74023   1.00
C5       0.17829    -0.02152   0.73108   1.00
H2       0.18210    -0.00217   0.70542   1.00
H2       0.15440    -0.04235   0.72441   1.00
H2       0.16906    -0.00350   0.75633   1.00
C3a      0.28599    -0.08155   0.75708   1.00
H1       0.31283    -0.09700   0.76355   1.00
C3a      0.21733    -0.08257   0.73947   1.00
H1       0.19113    -0.09881   0.73234   1.00
C2       0.25208    -0.10243   0.74785   1.00
C2       0.25215    0.24792    0.60243   1.00
C3a      0.28605    0.23955    0.58116   1.00
H1       0.31290    0.23244    0.59631   1.00
C3a      0.21740    0.25713    0.58296   1.00
H1       0.19121    0.26359    0.59949   1.00
C3b      0.28558    0.24027    0.54062   1.00
C5       0.32254    0.23112    0.51856   1.00
H2       0.33101    0.25637    0.50016   1.00
H2       0.34728    0.22449    0.53839   1.00
H2       0.31795    0.20545    0.49940   1.00
C3b      0.21617    0.25804    0.54244   1.00
C5       0.17832    0.26805    0.52233   1.00
H2       0.16906    0.24356    0.50330   1.00
H2       0.15444    0.27386    0.54345   1.00
H2       0.18212    0.29448    0.50406   1.00
C4       0.25045    0.24957    0.52127   1.00
C4       0.24955    0.25043    0.47873   1.00
C3b      0.25803    0.28555    0.45899   1.00
C5       0.26806    0.32254    0.48063   1.00
H2       0.29451    0.31797    0.49871   1.00
H2       0.27387    0.34726    0.46051   1.00
H2       0.24360    0.33101    0.50005   1.00
C3b      0.24023    0.21613    0.45796   1.00
C5       0.23108    0.17829    0.47848   1.00
H2       0.20542    0.18210    0.49783   1.00
H2       0.22441    0.15440    0.45765   1.00
H2       0.25633    0.16906    0.49650   1.00
C3a      0.25708    0.28599    0.41845   1.00
H1       0.26355    0.31283    0.40300   1.00
C3a      0.23947    0.21733    0.41743   1.00
H1       0.23234    0.19113    0.40119   1.00
C2       0.24785    0.25208    0.39757   1.00
C2       0.25215    0.75208    0.39757   1.00
C3a      0.28605    0.76045    0.41884   1.00
H1       0.31290    0.76756    0.40369   1.00
C3a      0.21740    0.74287    0.41704   1.00
H1       0.19121    0.73641    0.40051   1.00
C3b      0.28558    0.75973    0.45938   1.00
C5       0.32254    0.76888    0.48144   1.00
H2       0.33101    0.74363    0.49984   1.00
H2       0.34728    0.77551    0.46161   1.00
H2       0.31795    0.79455    0.50060   1.00
C3b      0.21617    0.74196    0.45756   1.00
C5       0.17832    0.73195    0.47767   1.00
H2       0.16906    0.75644    0.49670   1.00
H2       0.15444    0.72614    0.45655   1.00
H2       0.18212    0.70552    0.49594   1.00
C4       0.25045    0.75043    0.47873   1.00
C4       0.24955    0.74957    0.52127   1.00
C3b      0.25803    0.71445    0.54101   1.00
C5       0.26806    0.67746    0.51937   1.00
H2       0.29451    0.68203    0.50129   1.00
H2       0.27387    0.65274    0.53949   1.00
H2       0.24360    0.66899    0.49995   1.00
C3b      0.24023    0.78387    0.54204   1.00
C5       0.23108    0.82171    0.52152   1.00
H2       0.20542    0.81790    0.50217   1.00
H2       0.22441    0.84560    0.54235   1.00
H2       0.25633    0.83094    0.50350   1.00
C3a      0.25708    0.71401    0.58155   1.00
H1       0.26355    0.68717    0.59700   1.00
C3a      0.23947    0.78267    0.58257   1.00
H1       0.23234    0.80887    0.59881   1.00
C2       0.24785    0.74792    0.60243   1.00
C2       0.25208    0.89757    0.25215   1.00
C3a      0.26045    0.91884    0.28605   1.00
H1       0.26756    0.90369    0.31290   1.00
C3a      0.24287    0.91704    0.21740   1.00
H1       0.23641    0.90051    0.19121   1.00
C3b      0.25973    0.95938    0.28558   1.00
C5       0.26888    0.98144    0.32254   1.00
H2       0.24363    0.99984    0.33101   1.00
H2       0.27551    0.96161    0.34728   1.00
H2       0.29455    1.00060    0.31795   1.00
C3b      0.24196    0.95756    0.21617   1.00
C5       0.23195    0.97767    0.17832   1.00
H2       0.25644    0.99670    0.16906   1.00
H2       0.22614    0.95655    0.15444   1.00
H2       0.20552    0.99594    0.18212   1.00
C4       0.25043    0.97873    0.25045   1.00
C4       0.24957    1.02127    0.24955   1.00
C3b      0.21445    1.04101    0.25803   1.00
C5       0.17746    1.01937    0.26806   1.00
H2       0.18203    1.00129    0.29451   1.00
H2       0.15274    1.03949    0.27387   1.00
H2       0.16899    0.99995    0.24360   1.00
C3b      0.28387    1.04204    0.24023   1.00
C5       0.32171    1.02152    0.23108   1.00
H2       0.31790    1.00217    0.20542   1.00
H2       0.34560    1.04235    0.22441   1.00
H2       0.33094    1.00350    0.25633   1.00
C3a      0.21401    1.08155    0.25708   1.00
H1       0.18717    1.09700    0.26355   1.00
C3a      0.28267    1.08257    0.23947   1.00
H1       0.30887    1.09881    0.23234   1.00
C2       0.24792    1.10243    0.24785   1.00
C2       0.10243    0.75215    0.24792   1.00
C3a      0.08116    0.78605    0.23955   1.00
H1       0.09631    0.81290    0.23244   1.00
C3a      0.08296    0.71740    0.25713   1.00
H1       0.09949    0.69121    0.26359   1.00
C3b      0.04062    0.78558    0.24027   1.00
C5       0.01856    0.82254    0.23112   1.00
H2       0.00016    0.83101    0.25637   1.00
H2       0.03839    0.84728    0.22449   1.00
H2       -0.00060   0.81795    0.20545   1.00
C3b      0.04244    0.71617    0.25804   1.00
C5       0.02233    0.67832    0.26805   1.00
H2       0.00330    0.66906    0.24356   1.00
H2       0.04345    0.65444    0.27386   1.00
H2       0.00406    0.68212    0.29448   1.00
C4       0.02127    0.75045    0.24957   1.00
C4       -0.02127   0.74955    0.25043   1.00
C3b      -0.04101   0.75803    0.28555   1.00
C5       -0.01937   0.76806    0.32254   1.00
H2       -0.00129   0.79451    0.31797   1.00
H2       -0.03949   0.77387    0.34726   1.00
H2       0.00005    0.74360    0.33101   1.00
C3b      -0.04204   0.74023    0.21613   1.00
C5       -0.02152   0.73108    0.17829   1.00
H2       -0.00217   0.70542    0.18210   1.00
H2       -0.04235   0.72441    0.15440   1.00
H2       -0.00350   0.75633    0.16906   1.00
C3a      -0.08155   0.75708    0.28599   1.00
H1       -0.09700   0.76355    0.31283   1.00
C3a      -0.08257   0.73947    0.21733   1.00
H1       -0.09881   0.73234    0.19113   1.00
C2       -0.10243   0.74785    0.25208   1.00
C2       0.39757    0.75215    0.25208   1.00
C3a      0.41884    0.78605    0.26045   1.00
H1       0.40369    0.81290    0.26756   1.00
C3a      0.41704    0.71740    0.24287   1.00
H1       0.40051    0.69121    0.23641   1.00
C3b      0.45938    0.78558    0.25973   1.00
C5       0.48144    0.82254    0.26888   1.00
H2       0.49984    0.83101    0.24363   1.00
H2       0.46161    0.84728    0.27551   1.00
H2       0.50060    0.81795    0.29455   1.00
C3b      0.45756    0.71617    0.24196   1.00
C5       0.47767    0.67832    0.23195   1.00
H2       0.49670    0.66906    0.25644   1.00
H2       0.45655    0.65444    0.22614   1.00
H2       0.49594    0.68212    0.20552   1.00
C4       0.47873    0.75045    0.25043   1.00
C4       0.52127    0.74955    0.24957   1.00
C3b      0.54101    0.75803    0.21445   1.00
C5       0.51937    0.76806    0.17746   1.00
H2       0.50129    0.79451    0.18203   1.00
H2       0.53949    0.77387    0.15274   1.00
H2       0.49995    0.74360    0.16899   1.00
C3b      0.54204    0.74023    0.28387   1.00
C5       0.52152    0.73108    0.32171   1.00
H2       0.50217    0.70542    0.31790   1.00
H2       0.54235    0.72441    0.34560   1.00
H2       0.50350    0.75633    0.33094   1.00
C3a      0.58155    0.75708    0.21401   1.00
H1       0.59700    0.76355    0.18717   1.00
C3a      0.58257    0.73947    0.28267   1.00
H1       0.59881    0.73234    0.30887   1.00
C2       0.60243    0.74785    0.24792   1.00
C2       0.24792    0.60243    0.25215   1.00
C3a      0.23955    0.58116    0.28605   1.00
H1       0.23244    0.59631    0.31290   1.00
C3a      0.25713    0.58296    0.21740   1.00
H1       0.26359    0.59949    0.19121   1.00
C3b      0.24027    0.54062    0.28558   1.00
C5       0.23112    0.51856    0.32254   1.00
H2       0.25637    0.50016    0.33101   1.00
H2       0.22449    0.53839    0.34728   1.00
H2       0.20545    0.49940    0.31795   1.00
C3b      0.25804    0.54244    0.21617   1.00
C5       0.26805    0.52233    0.17832   1.00
H2       0.24356    0.50330    0.16906   1.00
H2       0.27386    0.54345    0.15444   1.00
H2       0.29448    0.50406    0.18212   1.00
C4       0.24957    0.52127    0.25045   1.00
C4       0.25043    0.47873    0.24955   1.00
C3b      0.28555    0.45899    0.25803   1.00
C5       0.32254    0.48063    0.26806   1.00
H2       0.31797    0.49871    0.29451   1.00
H2       0.34726    0.46051    0.27387   1.00
H2       0.33101    0.50005    0.24360   1.00
C3b      0.21613    0.45796    0.24023   1.00
C5       0.17829    0.47848    0.23108   1.00
H2       0.18210    0.49783    0.20542   1.00
H2       0.15440    0.45765    0.22441   1.00
H2       0.16906    0.49650    0.25633   1.00
C3a      0.28599    0.41845    0.25708   1.00
H1       0.31283    0.40300    0.26355   1.00
C3a      0.21733    0.41743    0.23947   1.00
H1       0.19113    0.40119    0.23234   1.00
C2       0.25208    0.39757    0.24785   1.00
C2       0.25215    0.74792    0.10243   1.00
C3a      0.28605    0.73955    0.08116   1.00
H1       0.31290    0.73244    0.09631   1.00
C3a      0.21740    0.75713    0.08296   1.00
H1       0.19121    0.76359    0.09949   1.00
C3b      0.28558    0.74027    0.04062   1.00
C5       0.32254    0.73112    0.01856   1.00
H2       0.33101    0.75637    0.00016   1.00
H2       0.34728    0.72449    0.03839   1.00
H2       0.31795    0.70545    -0.00060   1.00
C3b      0.21617    0.75804    0.04244   1.00
C5       0.17832    0.76805    0.02233   1.00
H2       0.16906    0.74356    0.00330   1.00
H2       0.15444    0.77386    0.04345   1.00
H2       0.18212    0.79448    0.00406   1.00
C4       0.25045    0.74957    0.02127   1.00
C4       0.24955    0.75043    -0.02127   1.00
C3b      0.25803    0.78555    -0.04101   1.00
C5       0.26806    0.82254    -0.01937   1.00
H2       0.29451    0.81797    -0.00129   1.00
H2       0.27387    0.84726    -0.03949   1.00
H2       0.24360    0.83101    0.00005   1.00
C3b      0.24023    0.71613    -0.04204   1.00
C5       0.23108    0.67829    -0.02152   1.00
H2       0.20542    0.68210    -0.00217   1.00
H2       0.22441    0.65440    -0.04235   1.00
H2       0.25633    0.66906    -0.00350   1.00
C3a      0.25708    0.78599    -0.08155   1.00
H1       0.26355    0.81283    -0.09700   1.00
C3a      0.23947    0.71733    -0.08257   1.00
H1       0.23234    0.69113    -0.09881   1.00
C2       0.24785    0.75208    -0.10243   1.00
C2       0.75215    0.25208    0.39757   1.00
C3a      0.78605    0.26045    0.41884   1.00
H1       0.81290    0.26756    0.40369   1.00
C3a      0.71740    0.24287    0.41704   1.00
H1       0.69121    0.23641    0.40051   1.00
C3b      0.78558    0.25973    0.45938   1.00
C5       0.82254    0.26888    0.48144   1.00
H2       0.83101    0.24363    0.49984   1.00
H2       0.84728    0.27551    0.46161   1.00
H2       0.81795    0.29455    0.50060   1.00
C3b      0.71617    0.24196    0.45756   1.00
C5       0.67832    0.23195    0.47767   1.00
H2       0.66906    0.25644    0.49670   1.00
H2       0.65444    0.22614    0.45655   1.00
H2       0.68212    0.20552    0.49594   1.00
C4       0.75045    0.25043    0.47873   1.00
C4       0.74955    0.24957    0.52127   1.00
C3b      0.75803    0.21445    0.54101   1.00
C5       0.76806    0.17746    0.51937   1.00
H2       0.79451    0.18203    0.50129   1.00
H2       0.77387    0.15274    0.53949   1.00
H2       0.74360    0.16899    0.49995   1.00
C3b      0.74023    0.28387    0.54204   1.00
C5       0.73108    0.32171    0.52152   1.00
H2       0.70542    0.31790    0.50217   1.00
H2       0.72441    0.34560    0.54235   1.00
H2       0.75633    0.33094    0.50350   1.00
C3a      0.75708    0.21401    0.58155   1.00
H1       0.76355    0.18717    0.59700   1.00
C3a      0.73947    0.28267    0.58257   1.00
H1       0.73234    0.30887    0.59881   1.00
C2       0.74785    0.24792    0.60243   1.00
C2       0.75208    0.39757    0.25215   1.00
C3a      0.76045    0.41884    0.28605   1.00
H1       0.76756    0.40369    0.31290   1.00
C3a      0.74287    0.41704    0.21740   1.00
H1       0.73641    0.40051    0.19121   1.00
C3b      0.75973    0.45938    0.28558   1.00
C5       0.76888    0.48144    0.32254   1.00
H2       0.74363    0.49984    0.33101   1.00
H2       0.77551    0.46161    0.34728   1.00
H2       0.79455    0.50060    0.31795   1.00
C3b      0.74196    0.45756    0.21617   1.00
C5       0.73195    0.47767    0.17832   1.00
H2       0.75644    0.49670    0.16906   1.00
H2       0.72614    0.45655    0.15444   1.00
H2       0.70552    0.49594    0.18212   1.00
C4       0.75043    0.47873    0.25045   1.00
C4       0.74957    0.52127    0.24955   1.00
C3b      0.71445    0.54101    0.25803   1.00
C5       0.67746    0.51937    0.26806   1.00
H2       0.68203    0.50129    0.29451   1.00
H2       0.65274    0.53949    0.27387   1.00
H2       0.66899    0.49995    0.24360   1.00
C3b      0.78387    0.54204    0.24023   1.00
C5       0.82171    0.52152    0.23108   1.00
H2       0.81790    0.50217    0.20542   1.00
H2       0.84560    0.54235    0.22441   1.00
H2       0.83094    0.50350    0.25633   1.00
C3a      0.71401    0.58155    0.25708   1.00
H1       0.68717    0.59700    0.26355   1.00
C3a      0.78267    0.58257    0.23947   1.00
H1       0.80887    0.59881    0.23234   1.00
C2       0.74792    0.60243    0.24785   1.00
C2       0.60243    0.25215    0.24792   1.00
C3a      0.58116    0.28605    0.23955   1.00
H1       0.59631    0.31290    0.23244   1.00
C3a      0.58296    0.21740    0.25713   1.00
H1       0.59949    0.19121    0.26359   1.00
C3b      0.54062    0.28558    0.24027   1.00
C5       0.51856    0.32254    0.23112   1.00
H2       0.50016    0.33101    0.25637   1.00
H2       0.53839    0.34728    0.22449   1.00
H2       0.49940    0.31795    0.20545   1.00
C3b      0.54244    0.21617    0.25804   1.00
C5       0.52233    0.17832    0.26805   1.00
H2       0.50330    0.16906    0.24356   1.00
H2       0.54345    0.15444    0.27386   1.00
H2       0.50406    0.18212    0.29448   1.00
C4       0.52127    0.25045    0.24957   1.00
C4       0.47873    0.24955    0.25043   1.00
C3b      0.45899    0.25803    0.28555   1.00
C5       0.48063    0.26806    0.32254   1.00
H2       0.49871    0.29451    0.31797   1.00
H2       0.46051    0.27387    0.34726   1.00
H2       0.50005    0.24360    0.33101   1.00
C3b      0.45796    0.24023    0.21613   1.00
C5       0.47848    0.23108    0.17829   1.00
H2       0.49783    0.20542    0.18210   1.00
H2       0.45765    0.22441    0.15440   1.00
H2       0.49650    0.25633    0.16906   1.00
C3a      0.41845    0.25708    0.28599   1.00
H1       0.40300    0.26355    0.31283   1.00
C3a      0.41743    0.23947    0.21733   1.00
H1       0.40119    0.23234    0.19113   1.00
C2       0.39757    0.24785    0.25208   1.00
C2       0.89757    0.25215    0.25208   1.00
C3a      0.91884    0.28605    0.26045   1.00
H1       0.90369    0.31290    0.26756   1.00
C3a      0.91704    0.21740    0.24287   1.00
H1       0.90051    0.19121    0.23641   1.00
C3b      0.95938    0.28558    0.25973   1.00
C5       0.98144    0.32254    0.26888   1.00
H2       0.99984    0.33101    0.24363   1.00
H2       0.96161    0.34728    0.27551   1.00
H2       1.00060    0.31795    0.29455   1.00
C3b      0.95756    0.21617    0.24196   1.00
C5       0.97767    0.17832    0.23195   1.00
H2       0.99670    0.16906    0.25644   1.00
H2       0.95655    0.15444    0.22614   1.00
H2       0.99594    0.18212    0.20552   1.00
C4       0.97873    0.25045    0.25043   1.00
C4       1.02127    0.24955    0.24957   1.00
C3b      1.04101    0.25803    0.21445   1.00
C5       1.01937    0.26806    0.17746   1.00
H2       1.00129    0.29451    0.18203   1.00
H2       1.03949    0.27387    0.15274   1.00
H2       0.99995    0.24360    0.16899   1.00
C3b      1.04204    0.24023    0.28387   1.00
C5       1.02152    0.23108    0.32171   1.00
H2       1.00217    0.20542    0.31790   1.00
H2       1.04235    0.22441    0.34560   1.00
H2       1.00350    0.25633    0.33094   1.00
C3a      1.08155    0.25708    0.21401   1.00
H1       1.09700    0.26355    0.18717   1.00
C3a      1.08257    0.23947    0.28267   1.00
H1       1.09881    0.23234    0.30887   1.00
C2       1.10243    0.24785    0.24792   1.00
C2       0.74792    0.10243    0.25215   1.00
C3a      0.73955    0.08116    0.28605   1.00
H1       0.73244    0.09631    0.31290   1.00
C3a      0.75713    0.08296    0.21740   1.00
H1       0.76359    0.09949    0.19121   1.00
C3b      0.74027    0.04062    0.28558   1.00
C5       0.73112    0.01856    0.32254   1.00
H2       0.75637    0.00016    0.33101   1.00
H2       0.72449    0.03839    0.34728   1.00
H2       0.70545    -0.00060   0.31795   1.00
C3b      0.75804    0.04244    0.21617   1.00
C5       0.76805    0.02233    0.17832   1.00
H2       0.74356    0.00330    0.16906   1.00
H2       0.77386    0.04345    0.15444   1.00
H2       0.79448    0.00406    0.18212   1.00
C4       0.74957    0.02127    0.25045   1.00
C4       0.75043    -0.02127   0.24955   1.00
C3b      0.78555    -0.04101   0.25803   1.00
C5       0.82254    -0.01937   0.26806   1.00
H2       0.81797    -0.00129   0.29451   1.00
H2       0.84726    -0.03949   0.27387   1.00
H2       0.83101    0.00005    0.24360   1.00
C3b      0.71613    -0.04204   0.24023   1.00
C5       0.67829    -0.02152   0.23108   1.00
H2       0.68210    -0.00217   0.20542   1.00
H2       0.65440    -0.04235   0.22441   1.00
H2       0.66906    -0.00350   0.25633   1.00
C3a      0.78599    -0.08155   0.25708   1.00
H1       0.81283    -0.09700   0.26355   1.00
C3a      0.71733    -0.08257   0.23947   1.00
H1       0.69113    -0.09881   0.23234   1.00
C2       0.75208    -0.10243   0.24785   1.00
C2       0.75215    0.24792    0.10243   1.00
C3a      0.78605    0.23955    0.08116   1.00
H1       0.81290    0.23244    0.09631   1.00
C3a      0.71740    0.25713    0.08296   1.00
H1       0.69121    0.26359    0.09949   1.00
C3b      0.78558    0.24027    0.04062   1.00
C5       0.82254    0.23112    0.01856   1.00
H2       0.83101    0.25637    0.00016   1.00
H2       0.84728    0.22449    0.03839   1.00
H2       0.81795    0.20545    -0.00060   1.00
C3b      0.71617    0.25804    0.04244   1.00
C5       0.67832    0.26805    0.02233   1.00
H2       0.66906    0.24356    0.00330   1.00
H2       0.65444    0.27386    0.04345   1.00
H2       0.68212    0.29448    0.00406   1.00
C4       0.75045    0.24957    0.02127   1.00
C4       0.74955    0.25043    -0.02127   1.00
C3b      0.75803    0.28555    -0.04101   1.00
C5       0.76806    0.32254    -0.01937   1.00
H2       0.79451    0.31797    -0.00129   1.00
H2       0.77387    0.34726    -0.03949   1.00
H2       0.74360    0.33101    0.00005   1.00
C3b      0.74023    0.21613    -0.04204   1.00
C5       0.73108    0.17829    -0.02152   1.00
H2       0.70542    0.18210    -0.00217   1.00
H2       0.72441    0.15440    -0.04235   1.00
H2       0.75633    0.16906    -0.00350   1.00
C3a      0.75708    0.28599    -0.08155   1.00
H1       0.76355    0.31283    -0.09700   1.00
C3a      0.73947    0.21733    -0.08257   1.00
H1       0.73234    0.19113    -0.09881   1.00
C2       0.74785    0.25208    -0.10243   1.00
C2       0.91715    0.91708    1.06257   1.00
C3a      0.95105    0.92545    1.08384   1.00
H1       0.97790    0.93256    1.06869   1.00
C3a      0.88240    0.90787    1.08204   1.00
H1       0.85621    0.90141    1.06551   1.00
C3b      0.95058    0.92473    1.12438   1.00
C5       0.98754    0.93388    1.14644   1.00
H2       0.99601    0.90863    1.16484   1.00
H2       1.01228    0.94051    1.12661   1.00
H2       0.98295    0.95955    1.16560   1.00
C3b      0.88117    0.90696    1.12256   1.00
C5       0.84332    0.89695    1.14267   1.00
H2       0.83406    0.92144    1.16170   1.00
H2       0.81944    0.89114    1.12155   1.00
H2       0.84712    0.87052    1.16094   1.00
C4       0.91545    0.91543    1.14373   1.00
C4       0.91455    0.91457    1.18627   1.00
C3b      0.92303    0.87945    1.20601   1.00
C5       0.93306    0.84246    1.18437   1.00
H2       0.95951    0.84703    1.16629   1.00
H2       0.93887    0.81774    1.20449   1.00
H2       0.90860    0.83399    1.16495   1.00
C3b      0.90523    0.94887    1.20704   1.00
C5       0.89608    0.98671    1.18652   1.00
H2       0.87042    0.98290    1.16717   1.00
H2       0.88941    1.01060    1.20735   1.00
H2       0.92133    0.99594    1.16850   1.00
C3a      0.92208    0.87901    1.24655   1.00
H1       0.92855    0.85217    1.26200   1.00
C3a      0.90447    0.94767    1.24757   1.00
H1       0.89734    0.97387    1.26381   1.00
C2       0.91285    0.91292    1.26743   1.00
C2       0.91708    1.06257    0.91715   1.00
C3a      0.92545    1.08384    0.95105   1.00
H1       0.93256    1.06869    0.97790   1.00
C3a      0.90787    1.08204    0.88240   1.00
H1       0.90141    1.06551    0.85621   1.00
C3b      0.92473    1.12438    0.95058   1.00
C5       0.93388    1.14644    0.98754   1.00
H2       0.90863    1.16484    0.99601   1.00
H2       0.94051    1.12661    1.01228   1.00
H2       0.95955    1.16560    0.98295   1.00
C3b      0.90696    1.12256    0.88117   1.00
C5       0.89695    1.14267    0.84332   1.00
H2       0.92144    1.16170    0.83406   1.00
H2       0.89114    1.12155    0.81944   1.00
H2       0.87052    1.16094    0.84712   1.00
C4       0.91543    1.14373    0.91545   1.00
C4       0.91457    1.18627    0.91455   1.00
C3b      0.87945    1.20601    0.92303   1.00
C5       0.84246    1.18437    0.93306   1.00
H2       0.84703    1.16629    0.95951   1.00
H2       0.81774    1.20449    0.93887   1.00
H2       0.83399    1.16495    0.90860   1.00
C3b      0.94887    1.20704    0.90523   1.00
C5       0.98671    1.18652    0.89608   1.00
H2       0.98290    1.16717    0.87042   1.00
H2       1.01060    1.20735    0.88941   1.00
H2       0.99594    1.16850    0.92133   1.00
C3a      0.87901    1.24655    0.92208   1.00
H1       0.85217    1.26200    0.92855   1.00
C3a      0.94767    1.24757    0.90447   1.00
H1       0.97387    1.26381    0.89734   1.00
C2       0.91292    1.26743    0.91285   1.00
C2       0.76743    0.91715    0.91292   1.00
C3a      0.74616    0.95105    0.90455   1.00
H1       0.76131    0.97790    0.89744   1.00
C3a      0.74796    0.88240    0.92213   1.00
H1       0.76449    0.85621    0.92859   1.00
C3b      0.70562    0.95058    0.90527   1.00
C5       0.68356    0.98754    0.89612   1.00
H2       0.66516    0.99601    0.92137   1.00
H2       0.70339    1.01228    0.88949   1.00
H2       0.66440    0.98295    0.87045   1.00
C3b      0.70744    0.88117    0.92304   1.00
C5       0.68733    0.84332    0.93305   1.00
H2       0.66830    0.83406    0.90856   1.00
H2       0.70845    0.81944    0.93886   1.00
H2       0.66906    0.84712    0.95948   1.00
C4       0.68627    0.91545    0.91457   1.00
C4       0.64373    0.91455    0.91543   1.00
C3b      0.62399    0.92303    0.95055   1.00
C5       0.64563    0.93306    0.98754   1.00
H2       0.66371    0.95951    0.98297   1.00
H2       0.62551    0.93887    1.01226   1.00
H2       0.66505    0.90860    0.99601   1.00
C3b      0.62296    0.90523    0.88113   1.00
C5       0.64348    0.89608    0.84329   1.00
H2       0.66283    0.87042    0.84710   1.00
H2       0.62265    0.88941    0.81940   1.00
H2       0.66150    0.92133    0.83406   1.00
C3a      0.58345    0.92208    0.95099   1.00
H1       0.56800    0.92855    0.97783   1.00
C3a      0.58243    0.90447    0.88233   1.00
H1       0.56619    0.89734    0.85613   1.00
C2       0.56257    0.91285    0.91708   1.00
C2       1.06257    0.91715    0.91708   1.00
C3a      1.08384    0.95105    0.92545   1.00
H1       1.06869    0.97790    0.93256   1.00
C3a      1.08204    0.88240    0.90787   1.00
H1       1.06551    0.85621    0.90141   1.00
C3b      1.12438    0.95058    0.92473   1.00
C5       1.14644    0.98754    0.93388   1.00
H2       1.16484    0.99601    0.90863   1.00
H2       1.12661    1.01228    0.94051   1.00
H2       1.16560    0.98295    0.95955   1.00
C3b      1.12256    0.88117    0.90696   1.00
C5       1.14267    0.84332    0.89695   1.00
H2       1.16170    0.83406    0.92144   1.00
H2       1.12155    0.81944    0.89114   1.00
H2       1.16094    0.84712    0.87052   1.00
C4       1.14373    0.91545    0.91543   1.00
C4       1.18627    0.91455    0.91457   1.00
C3b      1.20601    0.92303    0.87945   1.00
C5       1.18437    0.93306    0.84246   1.00
H2       1.16629    0.95951    0.84703   1.00
H2       1.20449    0.93887    0.81774   1.00
H2       1.16495    0.90860    0.83399   1.00
C3b      1.20704    0.90523    0.94887   1.00
C5       1.18652    0.89608    0.98671   1.00
H2       1.16717    0.87042    0.98290   1.00
H2       1.20735    0.88941    1.01060   1.00
H2       1.16850    0.92133    0.99594   1.00
C3a      1.24655    0.92208    0.87901   1.00
H1       1.26200    0.92855    0.85217   1.00
C3a      1.24757    0.90447    0.94767   1.00
H1       1.26381    0.89734    0.97387   1.00
C2       1.26743    0.91285    0.91292   1.00
C2       0.91292    0.76743    0.91715   1.00
C3a      0.90455    0.74616    0.95105   1.00
H1       0.89744    0.76131    0.97790   1.00
C3a      0.92213    0.74796    0.88240   1.00
H1       0.92859    0.76449    0.85621   1.00
C3b      0.90527    0.70562    0.95058   1.00
C5       0.89612    0.68356    0.98754   1.00
H2       0.92137    0.66516    0.99601   1.00
H2       0.88949    0.70339    1.01228   1.00
H2       0.87045    0.66440    0.98295   1.00
C3b      0.92304    0.70744    0.88117   1.00
C5       0.93305    0.68733    0.84332   1.00
H2       0.90856    0.66830    0.83406   1.00
H2       0.93886    0.70845    0.81944   1.00
H2       0.95948    0.66906    0.84712   1.00
C4       0.91457    0.68627    0.91545   1.00
C4       0.91543    0.64373    0.91455   1.00
C3b      0.95055    0.62399    0.92303   1.00
C5       0.98754    0.64563    0.93306   1.00
H2       0.98297    0.66371    0.95951   1.00
H2       1.01226    0.62551    0.93887   1.00
H2       0.99601    0.66505    0.90860   1.00
C3b      0.88113    0.62296    0.90523   1.00
C5       0.84329    0.64348    0.89608   1.00
H2       0.84710    0.66283    0.87042   1.00
H2       0.81940    0.62265    0.88941   1.00
H2       0.83406    0.66150    0.92133   1.00
C3a      0.95099    0.58345    0.92208   1.00
H1       0.97783    0.56800    0.92855   1.00
C3a      0.88233    0.58243    0.90447   1.00
H1       0.85613    0.56619    0.89734   1.00
C2       0.91708    0.56257    0.91285   1.00
C2       0.91715    0.91292    0.76743   1.00
C3a      0.95105    0.90455    0.74616   1.00
H1       0.97790    0.89744    0.76131   1.00
C3a      0.88240    0.92213    0.74796   1.00
H1       0.85621    0.92859    0.76449   1.00
C3b      0.95058    0.90527    0.70562   1.00
C5       0.98754    0.89612    0.68356   1.00
H2       0.99601    0.92137    0.66516   1.00
H2       1.01228    0.88949    0.70339   1.00
H2       0.98295    0.87045    0.66440   1.00
C3b      0.88117    0.92304    0.70744   1.00
C5       0.84332    0.93305    0.68733   1.00
H2       0.83406    0.90856    0.66830   1.00
H2       0.81944    0.93886    0.70845   1.00
H2       0.84712    0.95948    0.66906   1.00
C4       0.91545    0.91457    0.68627   1.00
C4       0.91455    0.91543    0.64373   1.00
C3b      0.92303    0.95055    0.62399   1.00
C5       0.93306    0.98754    0.64563   1.00
H2       0.95951    0.98297    0.66371   1.00
H2       0.93887    1.01226    0.62551   1.00
H2       0.90860    0.99601    0.66505   1.00
C3b      0.90523    0.88113    0.62296   1.00
C5       0.89608    0.84329    0.64348   1.00
H2       0.87042    0.84710    0.66283   1.00
H2       0.88941    0.81940    0.62265   1.00
H2       0.92133    0.83406    0.66150   1.00
C3a      0.92208    0.95099    0.58345   1.00
H1       0.92855    0.97783    0.56800   1.00
C3a      0.90447    0.88233    0.58243   1.00
H1       0.89734    0.85613    0.56619   1.00
C2       0.91285    0.91708    0.56257   1.00
C2       0.41715    0.41708    1.06257   1.00
C3a      0.45105    0.42545    1.08384   1.00
H1       0.47790    0.43256    1.06869   1.00
C3a      0.38240    0.40787    1.08204   1.00
H1       0.35621    0.40141    1.06551   1.00
C3b      0.45058    0.42473    1.12438   1.00
C5       0.48754    0.43388    1.14644   1.00
H2       0.49601    0.40863    1.16484   1.00
H2       0.51228    0.44051    1.12661   1.00
H2       0.48295    0.45955    1.16560   1.00
C3b      0.38117    0.40696    1.12256   1.00
C5       0.34332    0.39695    1.14267   1.00
H2       0.33406    0.42144    1.16170   1.00
H2       0.31944    0.39114    1.12155   1.00
H2       0.34712    0.37052    1.16094   1.00
C4       0.41545    0.41543    1.14373   1.00
C4       0.41455    0.41457    1.18627   1.00
C3b      0.42303    0.37945    1.20601   1.00
C5       0.43306    0.34246    1.18437   1.00
H2       0.45951    0.34703    1.16629   1.00
H2       0.43887    0.31774    1.20449   1.00
H2       0.40860    0.33399    1.16495   1.00
C3b      0.40523    0.44887    1.20704   1.00
C5       0.39608    0.48671    1.18652   1.00
H2       0.37042    0.48290    1.16717   1.00
H2       0.38941    0.51060    1.20735   1.00
H2       0.42133    0.49594    1.16850   1.00
C3a      0.42208    0.37901    1.24655   1.00
H1       0.42855    0.35217    1.26200   1.00
C3a      0.40447    0.44767    1.24757   1.00
H1       0.39734    0.47387    1.26381   1.00
C2       0.41285    0.41292    1.26743   1.00
C2       0.41708    0.56257    0.91715   1.00
C3a      0.42545    0.58384    0.95105   1.00
H1       0.43256    0.56869    0.97790   1.00
C3a      0.40787    0.58204    0.88240   1.00
H1       0.40141    0.56551    0.85621   1.00
C3b      0.42473    0.62438    0.95058   1.00
C5       0.43388    0.64644    0.98754   1.00
H2       0.40863    0.66484    0.99601   1.00
H2       0.44051    0.62661    1.01228   1.00
H2       0.45955    0.66560    0.98295   1.00
C3b      0.40696    0.62256    0.88117   1.00
C5       0.39695    0.64267    0.84332   1.00
H2       0.42144    0.66170    0.83406   1.00
H2       0.39114    0.62155    0.81944   1.00
H2       0.37052    0.66094    0.84712   1.00
C4       0.41543    0.64373    0.91545   1.00
C4       0.41457    0.68627    0.91455   1.00
C3b      0.37945    0.70601    0.92303   1.00
C5       0.34246    0.68437    0.93306   1.00
H2       0.34703    0.66629    0.95951   1.00
H2       0.31774    0.70449    0.93887   1.00
H2       0.33399    0.66495    0.90860   1.00
C3b      0.44887    0.70704    0.90523   1.00
C5       0.48671    0.68652    0.89608   1.00
H2       0.48290    0.66717    0.87042   1.00
H2       0.51060    0.70735    0.88941   1.00
H2       0.49594    0.66850    0.92133   1.00
C3a      0.37901    0.74655    0.92208   1.00
H1       0.35217    0.76200    0.92855   1.00
C3a      0.44767    0.74757    0.90447   1.00
H1       0.47387    0.76381    0.89734   1.00
C2       0.41292    0.76743    0.91285   1.00
C2       0.26743    0.41715    0.91292   1.00
C3a      0.24616    0.45105    0.90455   1.00
H1       0.26131    0.47790    0.89744   1.00
C3a      0.24796    0.38240    0.92213   1.00
H1       0.26449    0.35621    0.92859   1.00
C3b      0.20562    0.45058    0.90527   1.00
C5       0.18356    0.48754    0.89612   1.00
H2       0.16516    0.49601    0.92137   1.00
H2       0.20339    0.51228    0.88949   1.00
H2       0.16440    0.48295    0.87045   1.00
C3b      0.20744    0.38117    0.92304   1.00
C5       0.18733    0.34332    0.93305   1.00
H2       0.16830    0.33406    0.90856   1.00
H2       0.20845    0.31944    0.93886   1.00
H2       0.16906    0.34712    0.95948   1.00
C4       0.18627    0.41545    0.91457   1.00
C4       0.14373    0.41455    0.91543   1.00
C3b      0.12399    0.42303    0.95055   1.00
C5       0.14563    0.43306    0.98754   1.00
H2       0.16371    0.45951    0.98297   1.00
H2       0.12551    0.43887    1.01226   1.00
H2       0.16505    0.40860    0.99601   1.00
C3b      0.12296    0.40523    0.88113   1.00
C5       0.14348    0.39608    0.84329   1.00
H2       0.16283    0.37042    0.84710   1.00
H2       0.12265    0.38941    0.81940   1.00
H2       0.16150    0.42133    0.83406   1.00
C3a      0.08345    0.42208    0.95099   1.00
H1       0.06800    0.42855    0.97783   1.00
C3a      0.08243    0.40447    0.88233   1.00
H1       0.06619    0.39734    0.85613   1.00
C2       0.06257    0.41285    0.91708   1.00
C2       0.56257    0.41715    0.91708   1.00
C3a      0.58384    0.45105    0.92545   1.00
H1       0.56869    0.47790    0.93256   1.00
C3a      0.58204    0.38240    0.90787   1.00
H1       0.56551    0.35621    0.90141   1.00
C3b      0.62438    0.45058    0.92473   1.00
C5       0.64644    0.48754    0.93388   1.00
H2       0.66484    0.49601    0.90863   1.00
H2       0.62661    0.51228    0.94051   1.00
H2       0.66560    0.48295    0.95955   1.00
C3b      0.62256    0.38117    0.90696   1.00
C5       0.64267    0.34332    0.89695   1.00
H2       0.66170    0.33406    0.92144   1.00
H2       0.62155    0.31944    0.89114   1.00
H2       0.66094    0.34712    0.87052   1.00
C4       0.64373    0.41545    0.91543   1.00
C4       0.68627    0.41455    0.91457   1.00
C3b      0.70601    0.42303    0.87945   1.00
C5       0.68437    0.43306    0.84246   1.00
H2       0.66629    0.45951    0.84703   1.00
H2       0.70449    0.43887    0.81774   1.00
H2       0.66495    0.40860    0.83399   1.00
C3b      0.70704    0.40523    0.94887   1.00
C5       0.68652    0.39608    0.98671   1.00
H2       0.66717    0.37042    0.98290   1.00
H2       0.70735    0.38941    1.01060   1.00
H2       0.66850    0.42133    0.99594   1.00
C3a      0.74655    0.42208    0.87901   1.00
H1       0.76200    0.42855    0.85217   1.00
C3a      0.74757    0.40447    0.94767   1.00
H1       0.76381    0.39734    0.97387   1.00
C2       0.76743    0.41285    0.91292   1.00
C2       0.41292    0.26743    0.91715   1.00
C3a      0.40455    0.24616    0.95105   1.00
H1       0.39744    0.26131    0.97790   1.00
C3a      0.42213    0.24796    0.88240   1.00
H1       0.42859    0.26449    0.85621   1.00
C3b      0.40527    0.20562    0.95058   1.00
C5       0.39612    0.18356    0.98754   1.00
H2       0.42137    0.16516    0.99601   1.00
H2       0.38949    0.20339    1.01228   1.00
H2       0.37045    0.16440    0.98295   1.00
C3b      0.42304    0.20744    0.88117   1.00
C5       0.43305    0.18733    0.84332   1.00
H2       0.40856    0.16830    0.83406   1.00
H2       0.43886    0.20845    0.81944   1.00
H2       0.45948    0.16906    0.84712   1.00
C4       0.41457    0.18627    0.91545   1.00
C4       0.41543    0.14373    0.91455   1.00
C3b      0.45055    0.12399    0.92303   1.00
C5       0.48754    0.14563    0.93306   1.00
H2       0.48297    0.16371    0.95951   1.00
H2       0.51226    0.12551    0.93887   1.00
H2       0.49601    0.16505    0.90860   1.00
C3b      0.38113    0.12296    0.90523   1.00
C5       0.34329    0.14348    0.89608   1.00
H2       0.34710    0.16283    0.87042   1.00
H2       0.31940    0.12265    0.88941   1.00
H2       0.33406    0.16150    0.92133   1.00
C3a      0.45099    0.08345    0.92208   1.00
H1       0.47783    0.06800    0.92855   1.00
C3a      0.38233    0.08243    0.90447   1.00
H1       0.35613    0.06619    0.89734   1.00
C2       0.41708    0.06257    0.91285   1.00
C2       0.41715    0.41292    0.76743   1.00
C3a      0.45105    0.40455    0.74616   1.00
H1       0.47790    0.39744    0.76131   1.00
C3a      0.38240    0.42213    0.74796   1.00
H1       0.35621    0.42859    0.76449   1.00
C3b      0.45058    0.40527    0.70562   1.00
C5       0.48754    0.39612    0.68356   1.00
H2       0.49601    0.42137    0.66516   1.00
H2       0.51228    0.38949    0.70339   1.00
H2       0.48295    0.37045    0.66440   1.00
C3b      0.38117    0.42304    0.70744   1.00
C5       0.34332    0.43305    0.68733   1.00
H2       0.33406    0.40856    0.66830   1.00
H2       0.31944    0.43886    0.70845   1.00
H2       0.34712    0.45948    0.66906   1.00
C4       0.41545    0.41457    0.68627   1.00
C4       0.41455    0.41543    0.64373   1.00
C3b      0.42303    0.45055    0.62399   1.00
C5       0.43306    0.48754    0.64563   1.00
H2       0.45951    0.48297    0.66371   1.00
H2       0.43887    0.51226    0.62551   1.00
H2       0.40860    0.49601    0.66505   1.00
C3b      0.40523    0.38113    0.62296   1.00
C5       0.39608    0.34329    0.64348   1.00
H2       0.37042    0.34710    0.66283   1.00
H2       0.38941    0.31940    0.62265   1.00
H2       0.42133    0.33406    0.66150   1.00
C3a      0.42208    0.45099    0.58345   1.00
H1       0.42855    0.47783    0.56800   1.00
C3a      0.40447    0.38233    0.58243   1.00
H1       0.39734    0.35613    0.56619   1.00
C2       0.41285    0.41708    0.56257   1.00
C2       0.41715    0.91708    0.56257   1.00
C3a      0.45105    0.92545    0.58384   1.00
H1       0.47790    0.93256    0.56869   1.00
C3a      0.38240    0.90787    0.58204   1.00
H1       0.35621    0.90141    0.56551   1.00
C3b      0.45058    0.92473    0.62438   1.00
C5       0.48754    0.93388    0.64644   1.00
H2       0.49601    0.90863    0.66484   1.00
H2       0.51228    0.94051    0.62661   1.00
H2       0.48295    0.95955    0.66560   1.00
C3b      0.38117    0.90696    0.62256   1.00
C5       0.34332    0.89695    0.64267   1.00
H2       0.33406    0.92144    0.66170   1.00
H2       0.31944    0.89114    0.62155   1.00
H2       0.34712    0.87052    0.66094   1.00
C4       0.41545    0.91543    0.64373   1.00
C4       0.41455    0.91457    0.68627   1.00
C3b      0.42303    0.87945    0.70601   1.00
C5       0.43306    0.84246    0.68437   1.00
H2       0.45951    0.84703    0.66629   1.00
H2       0.43887    0.81774    0.70449   1.00
H2       0.40860    0.83399    0.66495   1.00
C3b      0.40523    0.94887    0.70704   1.00
C5       0.39608    0.98671    0.68652   1.00
H2       0.37042    0.98290    0.66717   1.00
H2       0.38941    1.01060    0.70735   1.00
H2       0.42133    0.99594    0.66850   1.00
C3a      0.42208    0.87901    0.74655   1.00
H1       0.42855    0.85217    0.76200   1.00
C3a      0.40447    0.94767    0.74757   1.00
H1       0.39734    0.97387    0.76381   1.00
C2       0.41285    0.91292    0.76743   1.00
C2       0.41708    1.06257    0.41715   1.00
C3a      0.42545    1.08384    0.45105   1.00
H1       0.43256    1.06869    0.47790   1.00
C3a      0.40787    1.08204    0.38240   1.00
H1       0.40141    1.06551    0.35621   1.00
C3b      0.42473    1.12438    0.45058   1.00
C5       0.43388    1.14644    0.48754   1.00
H2       0.40863    1.16484    0.49601   1.00
H2       0.44051    1.12661    0.51228   1.00
H2       0.45955    1.16560    0.48295   1.00
C3b      0.40696    1.12256    0.38117   1.00
C5       0.39695    1.14267    0.34332   1.00
H2       0.42144    1.16170    0.33406   1.00
H2       0.39114    1.12155    0.31944   1.00
H2       0.37052    1.16094    0.34712   1.00
C4       0.41543    1.14373    0.41545   1.00
C4       0.41457    1.18627    0.41455   1.00
C3b      0.37945    1.20601    0.42303   1.00
C5       0.34246    1.18437    0.43306   1.00
H2       0.34703    1.16629    0.45951   1.00
H2       0.31774    1.20449    0.43887   1.00
H2       0.33399    1.16495    0.40860   1.00
C3b      0.44887    1.20704    0.40523   1.00
C5       0.48671    1.18652    0.39608   1.00
H2       0.48290    1.16717    0.37042   1.00
H2       0.51060    1.20735    0.38941   1.00
H2       0.49594    1.16850    0.42133   1.00
C3a      0.37901    1.24655    0.42208   1.00
H1       0.35217    1.26200    0.42855   1.00
C3a      0.44767    1.24757    0.40447   1.00
H1       0.47387    1.26381    0.39734   1.00
C2       0.41292    1.26743    0.41285   1.00
C2       0.26743    0.91715    0.41292   1.00
C3a      0.24616    0.95105    0.40455   1.00
H1       0.26131    0.97790    0.39744   1.00
C3a      0.24796    0.88240    0.42213   1.00
H1       0.26449    0.85621    0.42859   1.00
C3b      0.20562    0.95058    0.40527   1.00
C5       0.18356    0.98754    0.39612   1.00
H2       0.16516    0.99601    0.42137   1.00
H2       0.20339    1.01228    0.38949   1.00
H2       0.16440    0.98295    0.37045   1.00
C3b      0.20744    0.88117    0.42304   1.00
C5       0.18733    0.84332    0.43305   1.00
H2       0.16830    0.83406    0.40856   1.00
H2       0.20845    0.81944    0.43886   1.00
H2       0.16906    0.84712    0.45948   1.00
C4       0.18627    0.91545    0.41457   1.00
C4       0.14373    0.91455    0.41543   1.00
C3b      0.12399    0.92303    0.45055   1.00
C5       0.14563    0.93306    0.48754   1.00
H2       0.16371    0.95951    0.48297   1.00
H2       0.12551    0.93887    0.51226   1.00
H2       0.16505    0.90860    0.49601   1.00
C3b      0.12296    0.90523    0.38113   1.00
C5       0.14348    0.89608    0.34329   1.00
H2       0.16283    0.87042    0.34710   1.00
H2       0.12265    0.88941    0.31940   1.00
H2       0.16150    0.92133    0.33406   1.00
C3a      0.08345    0.92208    0.45099   1.00
H1       0.06800    0.92855    0.47783   1.00
C3a      0.08243    0.90447    0.38233   1.00
H1       0.06619    0.89734    0.35613   1.00
C2       0.06257    0.91285    0.41708   1.00
C2       0.56257    0.91715    0.41708   1.00
C3a      0.58384    0.95105    0.42545   1.00
H1       0.56869    0.97790    0.43256   1.00
C3a      0.58204    0.88240    0.40787   1.00
H1       0.56551    0.85621    0.40141   1.00
C3b      0.62438    0.95058    0.42473   1.00
C5       0.64644    0.98754    0.43388   1.00
H2       0.66484    0.99601    0.40863   1.00
H2       0.62661    1.01228    0.44051   1.00
H2       0.66560    0.98295    0.45955   1.00
C3b      0.62256    0.88117    0.40696   1.00
C5       0.64267    0.84332    0.39695   1.00
H2       0.66170    0.83406    0.42144   1.00
H2       0.62155    0.81944    0.39114   1.00
H2       0.66094    0.84712    0.37052   1.00
C4       0.64373    0.91545    0.41543   1.00
C4       0.68627    0.91455    0.41457   1.00
C3b      0.70601    0.92303    0.37945   1.00
C5       0.68437    0.93306    0.34246   1.00
H2       0.66629    0.95951    0.34703   1.00
H2       0.70449    0.93887    0.31774   1.00
H2       0.66495    0.90860    0.33399   1.00
C3b      0.70704    0.90523    0.44887   1.00
C5       0.68652    0.89608    0.48671   1.00
H2       0.66717    0.87042    0.48290   1.00
H2       0.70735    0.88941    0.51060   1.00
H2       0.66850    0.92133    0.49594   1.00
C3a      0.74655    0.92208    0.37901   1.00
H1       0.76200    0.92855    0.35217   1.00
C3a      0.74757    0.90447    0.44767   1.00
H1       0.76381    0.89734    0.47387   1.00
C2       0.76743    0.91285    0.41292   1.00
C2       0.41292    0.76743    0.41715   1.00
C3a      0.40455    0.74616    0.45105   1.00
H1       0.39744    0.76131    0.47790   1.00
C3a      0.42213    0.74796    0.38240   1.00
H1       0.42859    0.76449    0.35621   1.00
C3b      0.40527    0.70562    0.45058   1.00
C5       0.39612    0.68356    0.48754   1.00
H2       0.42137    0.66516    0.49601   1.00
H2       0.38949    0.70339    0.51228   1.00
H2       0.37045    0.66440    0.48295   1.00
C3b      0.42304    0.70744    0.38117   1.00
C5       0.43305    0.68733    0.34332   1.00
H2       0.40856    0.66830    0.33406   1.00
H2       0.43886    0.70845    0.31944   1.00
H2       0.45948    0.66906    0.34712   1.00
C4       0.41457    0.68627    0.41545   1.00
C4       0.41543    0.64373    0.41455   1.00
C3b      0.45055    0.62399    0.42303   1.00
C5       0.48754    0.64563    0.43306   1.00
H2       0.48297    0.66371    0.45951   1.00
H2       0.51226    0.62551    0.43887   1.00
H2       0.49601    0.66505    0.40860   1.00
C3b      0.38113    0.62296    0.40523   1.00
C5       0.34329    0.64348    0.39608   1.00
H2       0.34710    0.66283    0.37042   1.00
H2       0.31940    0.62265    0.38941   1.00
H2       0.33406    0.66150    0.42133   1.00
C3a      0.45099    0.58345    0.42208   1.00
H1       0.47783    0.56800    0.42855   1.00
C3a      0.38233    0.58243    0.40447   1.00
H1       0.35613    0.56619    0.39734   1.00
C2       0.41708    0.56257    0.41285   1.00
C2       0.41715    0.91292    0.26743   1.00
C3a      0.45105    0.90455    0.24616   1.00
H1       0.47790    0.89744    0.26131   1.00
C3a      0.38240    0.92213    0.24796   1.00
H1       0.35621    0.92859    0.26449   1.00
C3b      0.45058    0.90527    0.20562   1.00
C5       0.48754    0.89612    0.18356   1.00
H2       0.49601    0.92137    0.16516   1.00
H2       0.51228    0.88949    0.20339   1.00
H2       0.48295    0.87045    0.16440   1.00
C3b      0.38117    0.92304    0.20744   1.00
C5       0.34332    0.93305    0.18733   1.00
H2       0.33406    0.90856    0.16830   1.00
H2       0.31944    0.93886    0.20845   1.00
H2       0.34712    0.95948    0.16906   1.00
C4       0.41545    0.91457    0.18627   1.00
C4       0.41455    0.91543    0.14373   1.00
C3b      0.42303    0.95055    0.12399   1.00
C5       0.43306    0.98754    0.14563   1.00
H2       0.45951    0.98297    0.16371   1.00
H2       0.43887    1.01226    0.12551   1.00
H2       0.40860    0.99601    0.16505   1.00
C3b      0.40523    0.88113    0.12296   1.00
C5       0.39608    0.84329    0.14348   1.00
H2       0.37042    0.84710    0.16283   1.00
H2       0.38941    0.81940    0.12265   1.00
H2       0.42133    0.83406    0.16150   1.00
C3a      0.42208    0.95099    0.08345   1.00
H1       0.42855    0.97783    0.06800   1.00
C3a      0.40447    0.88233    0.08243   1.00
H1       0.39734    0.85613    0.06619   1.00
C2       0.41285    0.91708    0.06257   1.00
C2       0.91715    0.41708    0.56257   1.00
C3a      0.95105    0.42545    0.58384   1.00
H1       0.97790    0.43256    0.56869   1.00
C3a      0.88240    0.40787    0.58204   1.00
H1       0.85621    0.40141    0.56551   1.00
C3b      0.95058    0.42473    0.62438   1.00
C5       0.98754    0.43388    0.64644   1.00
H2       0.99601    0.40863    0.66484   1.00
H2       1.01228    0.44051    0.62661   1.00
H2       0.98295    0.45955    0.66560   1.00
C3b      0.88117    0.40696    0.62256   1.00
C5       0.84332    0.39695    0.64267   1.00
H2       0.83406    0.42144    0.66170   1.00
H2       0.81944    0.39114    0.62155   1.00
H2       0.84712    0.37052    0.66094   1.00
C4       0.91545    0.41543    0.64373   1.00
C4       0.91455    0.41457    0.68627   1.00
C3b      0.92303    0.37945    0.70601   1.00
C5       0.93306    0.34246    0.68437   1.00
H2       0.95951    0.34703    0.66629   1.00
H2       0.93887    0.31774    0.70449   1.00
H2       0.90860    0.33399    0.66495   1.00
C3b      0.90523    0.44887    0.70704   1.00
C5       0.89608    0.48671    0.68652   1.00
H2       0.87042    0.48290    0.66717   1.00
H2       0.88941    0.51060    0.70735   1.00
H2       0.92133    0.49594    0.66850   1.00
C3a      0.92208    0.37901    0.74655   1.00
H1       0.92855    0.35217    0.76200   1.00
C3a      0.90447    0.44767    0.74757   1.00
H1       0.89734    0.47387    0.76381   1.00
C2       0.91285    0.41292    0.76743   1.00
C2       0.91708    0.56257    0.41715   1.00
C3a      0.92545    0.58384    0.45105   1.00
H1       0.93256    0.56869    0.47790   1.00
C3a      0.90787    0.58204    0.38240   1.00
H1       0.90141    0.56551    0.35621   1.00
C3b      0.92473    0.62438    0.45058   1.00
C5       0.93388    0.64644    0.48754   1.00
H2       0.90863    0.66484    0.49601   1.00
H2       0.94051    0.62661    0.51228   1.00
H2       0.95955    0.66560    0.48295   1.00
C3b      0.90696    0.62256    0.38117   1.00
C5       0.89695    0.64267    0.34332   1.00
H2       0.92144    0.66170    0.33406   1.00
H2       0.89114    0.62155    0.31944   1.00
H2       0.87052    0.66094    0.34712   1.00
C4       0.91543    0.64373    0.41545   1.00
C4       0.91457    0.68627    0.41455   1.00
C3b      0.87945    0.70601    0.42303   1.00
C5       0.84246    0.68437    0.43306   1.00
H2       0.84703    0.66629    0.45951   1.00
H2       0.81774    0.70449    0.43887   1.00
H2       0.83399    0.66495    0.40860   1.00
C3b      0.94887    0.70704    0.40523   1.00
C5       0.98671    0.68652    0.39608   1.00
H2       0.98290    0.66717    0.37042   1.00
H2       1.01060    0.70735    0.38941   1.00
H2       0.99594    0.66850    0.42133   1.00
C3a      0.87901    0.74655    0.42208   1.00
H1       0.85217    0.76200    0.42855   1.00
C3a      0.94767    0.74757    0.40447   1.00
H1       0.97387    0.76381    0.39734   1.00
C2       0.91292    0.76743    0.41285   1.00
C2       0.76743    0.41715    0.41292   1.00
C3a      0.74616    0.45105    0.40455   1.00
H1       0.76131    0.47790    0.39744   1.00
C3a      0.74796    0.38240    0.42213   1.00
H1       0.76449    0.35621    0.42859   1.00
C3b      0.70562    0.45058    0.40527   1.00
C5       0.68356    0.48754    0.39612   1.00
H2       0.66516    0.49601    0.42137   1.00
H2       0.70339    0.51228    0.38949   1.00
H2       0.66440    0.48295    0.37045   1.00
C3b      0.70744    0.38117    0.42304   1.00
C5       0.68733    0.34332    0.43305   1.00
H2       0.66830    0.33406    0.40856   1.00
H2       0.70845    0.31944    0.43886   1.00
H2       0.66906    0.34712    0.45948   1.00
C4       0.68627    0.41545    0.41457   1.00
C4       0.64373    0.41455    0.41543   1.00
C3b      0.62399    0.42303    0.45055   1.00
C5       0.64563    0.43306    0.48754   1.00
H2       0.66371    0.45951    0.48297   1.00
H2       0.62551    0.43887    0.51226   1.00
H2       0.66505    0.40860    0.49601   1.00
C3b      0.62296    0.40523    0.38113   1.00
C5       0.64348    0.39608    0.34329   1.00
H2       0.66283    0.37042    0.34710   1.00
H2       0.62265    0.38941    0.31940   1.00
H2       0.66150    0.42133    0.33406   1.00
C3a      0.58345    0.42208    0.45099   1.00
H1       0.56800    0.42855    0.47783   1.00
C3a      0.58243    0.40447    0.38233   1.00
H1       0.56619    0.39734    0.35613   1.00
C2       0.56257    0.41285    0.41708   1.00
C2       1.06257    0.41715    0.41708   1.00
C3a      1.08384    0.45105    0.42545   1.00
H1       1.06869    0.47790    0.43256   1.00
C3a      1.08204    0.38240    0.40787   1.00
H1       1.06551    0.35621    0.40141   1.00
C3b      1.12438    0.45058    0.42473   1.00
C5       1.14644    0.48754    0.43388   1.00
H2       1.16484    0.49601    0.40863   1.00
H2       1.12661    0.51228    0.44051   1.00
H2       1.16560    0.48295    0.45955   1.00
C3b      1.12256    0.38117    0.40696   1.00
C5       1.14267    0.34332    0.39695   1.00
H2       1.16170    0.33406    0.42144   1.00
H2       1.12155    0.31944    0.39114   1.00
H2       1.16094    0.34712    0.37052   1.00
C4       1.14373    0.41545    0.41543   1.00
C4       1.18627    0.41455    0.41457   1.00
C3b      1.20601    0.42303    0.37945   1.00
C5       1.18437    0.43306    0.34246   1.00
H2       1.16629    0.45951    0.34703   1.00
H2       1.20449    0.43887    0.31774   1.00
H2       1.16495    0.40860    0.33399   1.00
C3b      1.20704    0.40523    0.44887   1.00
C5       1.18652    0.39608    0.48671   1.00
H2       1.16717    0.37042    0.48290   1.00
H2       1.20735    0.38941    0.51060   1.00
H2       1.16850    0.42133    0.49594   1.00
C3a      1.24655    0.42208    0.37901   1.00
H1       1.26200    0.42855    0.35217   1.00
C3a      1.24757    0.40447    0.44767   1.00
H1       1.26381    0.39734    0.47387   1.00
C2       1.26743    0.41285    0.41292   1.00
C2       0.91292    0.26743    0.41715   1.00
C3a      0.90455    0.24616    0.45105   1.00
H1       0.89744    0.26131    0.47790   1.00
C3a      0.92213    0.24796    0.38240   1.00
H1       0.92859    0.26449    0.35621   1.00
C3b      0.90527    0.20562    0.45058   1.00
C5       0.89612    0.18356    0.48754   1.00
H2       0.92137    0.16516    0.49601   1.00
H2       0.88949    0.20339    0.51228   1.00
H2       0.87045    0.16440    0.48295   1.00
C3b      0.92304    0.20744    0.38117   1.00
C5       0.93305    0.18733    0.34332   1.00
H2       0.90856    0.16830    0.33406   1.00
H2       0.93886    0.20845    0.31944   1.00
H2       0.95948    0.16906    0.34712   1.00
C4       0.91457    0.18627    0.41545   1.00
C4       0.91543    0.14373    0.41455   1.00
C3b      0.95055    0.12399    0.42303   1.00
C5       0.98754    0.14563    0.43306   1.00
H2       0.98297    0.16371    0.45951   1.00
H2       1.01226    0.12551    0.43887   1.00
H2       0.99601    0.16505    0.40860   1.00
C3b      0.88113    0.12296    0.40523   1.00
C5       0.84329    0.14348    0.39608   1.00
H2       0.84710    0.16283    0.37042   1.00
H2       0.81940    0.12265    0.38941   1.00
H2       0.83406    0.16150    0.42133   1.00
C3a      0.95099    0.08345    0.42208   1.00
H1       0.97783    0.06800    0.42855   1.00
C3a      0.88233    0.08243    0.40447   1.00
H1       0.85613    0.06619    0.39734   1.00
C2       0.91708    0.06257    0.41285   1.00
C2       0.91715    0.41292    0.26743   1.00
C3a      0.95105    0.40455    0.24616   1.00
H1       0.97790    0.39744    0.26131   1.00
C3a      0.88240    0.42213    0.24796   1.00
H1       0.85621    0.42859    0.26449   1.00
C3b      0.95058    0.40527    0.20562   1.00
C5       0.98754    0.39612    0.18356   1.00
H2       0.99601    0.42137    0.16516   1.00
H2       1.01228    0.38949    0.20339   1.00
H2       0.98295    0.37045    0.16440   1.00
C3b      0.88117    0.42304    0.20744   1.00
C5       0.84332    0.43305    0.18733   1.00
H2       0.83406    0.40856    0.16830   1.00
H2       0.81944    0.43886    0.20845   1.00
H2       0.84712    0.45948    0.16906   1.00
C4       0.91545    0.41457    0.18627   1.00
C4       0.91455    0.41543    0.14373   1.00
C3b      0.92303    0.45055    0.12399   1.00
C5       0.93306    0.48754    0.14563   1.00
H2       0.95951    0.48297    0.16371   1.00
H2       0.93887    0.51226    0.12551   1.00
H2       0.90860    0.49601    0.16505   1.00
C3b      0.90523    0.38113    0.12296   1.00
C5       0.89608    0.34329    0.14348   1.00
H2       0.87042    0.34710    0.16283   1.00
H2       0.88941    0.31940    0.12265   1.00
H2       0.92133    0.33406    0.16150   1.00
C3a      0.92208    0.45099    0.08345   1.00
H1       0.92855    0.47783    0.06800   1.00
C3a      0.90447    0.38233    0.08243   1.00
H1       0.89734    0.35613    0.06619   1.00
C2       0.91285    0.41708    0.06257   1.00
