data_IRMOF10_SG202_interpen_Ligand3cp_label_e.

_audit_creation_method             'generated by an auxiliary program of Tobunporous'

_symmetry_space_group_name_H-M     'P 1'
_symmetry_Int_Tables_number        1
_symmetry_cell_setting             triclinic

_cell_length_a                    34.2800
_cell_length_b                    34.2800
_cell_length_c                    34.2800
_cell_angle_alpha                 90.0000
_cell_angle_beta                  90.0000
_cell_angle_gamma                 90.0000

loop_
_atom_site_label
_atom_site_fract_x
_atom_site_fract_y
_atom_site_fract_z
_atom_site_occupancy
O1       0.75000    0.75000    0.75000   1.00
Zn1      0.71720    0.78280    0.78280   1.00
Zn1      0.78280    0.71720    0.78280   1.00
Zn1      0.78280    0.78280    0.71720   1.00
Zn1      0.71720    0.71720    0.71720   1.00
O2       0.72650    0.77350    0.83820   1.00
O2       0.72650    0.83820    0.77350   1.00
O2       0.66180    0.77350    0.77350   1.00
O2       0.77350    0.72650    0.83820   1.00
O2       0.83820    0.72650    0.77350   1.00
O2       0.77350    0.66180    0.77350   1.00
O2       0.77350    0.83820    0.72650   1.00
O2       0.83820    0.77350    0.72650   1.00
O2       0.77350    0.77350    0.66180   1.00
O2       0.66180    0.72650    0.72650   1.00
O2       0.72650    0.66180    0.72650   1.00
O2       0.72650    0.72650    0.66180   1.00
C1       0.75000    0.75000    0.85520   1.00
C1       0.75000    0.85520    0.75000   1.00
C1       0.64480    0.75000    0.75000   1.00
C1       0.85520    0.75000    0.75000   1.00
C1       0.75000    0.64480    0.75000   1.00
C1       0.75000    0.75000    0.64480   1.00
O1       0.25000    0.25000    0.75000   1.00
Zn1      0.21720    0.28280    0.78280   1.00
Zn1      0.28280    0.21720    0.78280   1.00
Zn1      0.28280    0.28280    0.71720   1.00
Zn1      0.21720    0.21720    0.71720   1.00
O2       0.22650    0.27350    0.83820   1.00
O2       0.22650    0.33820    0.77350   1.00
O2       0.16180    0.27350    0.77350   1.00
O2       0.27350    0.22650    0.83820   1.00
O2       0.33820    0.22650    0.77350   1.00
O2       0.27350    0.16180    0.77350   1.00
O2       0.27350    0.33820    0.72650   1.00
O2       0.33820    0.27350    0.72650   1.00
O2       0.27350    0.27350    0.66180   1.00
O2       0.16180    0.22650    0.72650   1.00
O2       0.22650    0.16180    0.72650   1.00
O2       0.22650    0.22650    0.66180   1.00
C1       0.25000    0.25000    0.85520   1.00
C1       0.25000    0.35520    0.75000   1.00
C1       0.14480    0.25000    0.75000   1.00
C1       0.35520    0.25000    0.75000   1.00
C1       0.25000    0.14480    0.75000   1.00
C1       0.25000    0.25000    0.64480   1.00
O1       0.25000    0.75000    0.25000   1.00
Zn1      0.21720    0.78280    0.28280   1.00
Zn1      0.28280    0.71720    0.28280   1.00
Zn1      0.28280    0.78280    0.21720   1.00
Zn1      0.21720    0.71720    0.21720   1.00
O2       0.22650    0.77350    0.33820   1.00
O2       0.22650    0.83820    0.27350   1.00
O2       0.16180    0.77350    0.27350   1.00
O2       0.27350    0.72650    0.33820   1.00
O2       0.33820    0.72650    0.27350   1.00
O2       0.27350    0.66180    0.27350   1.00
O2       0.27350    0.83820    0.22650   1.00
O2       0.33820    0.77350    0.22650   1.00
O2       0.27350    0.77350    0.16180   1.00
O2       0.16180    0.72650    0.22650   1.00
O2       0.22650    0.66180    0.22650   1.00
O2       0.22650    0.72650    0.16180   1.00
C1       0.25000    0.75000    0.35520   1.00
C1       0.25000    0.85520    0.25000   1.00
C1       0.14480    0.75000    0.25000   1.00
C1       0.35520    0.75000    0.25000   1.00
C1       0.25000    0.64480    0.25000   1.00
C1       0.25000    0.75000    0.14480   1.00
O1       0.75000    0.25000    0.25000   1.00
Zn1      0.71720    0.28280    0.28280   1.00
Zn1      0.78280    0.21720    0.28280   1.00
Zn1      0.78280    0.28280    0.21720   1.00
Zn1      0.71720    0.21720    0.21720   1.00
O2       0.72650    0.27350    0.33820   1.00
O2       0.72650    0.33820    0.27350   1.00
O2       0.66180    0.27350    0.27350   1.00
O2       0.77350    0.22650    0.33820   1.00
O2       0.83820    0.22650    0.27350   1.00
O2       0.77350    0.16180    0.27350   1.00
O2       0.77350    0.33820    0.22650   1.00
O2       0.83820    0.27350    0.22650   1.00
O2       0.77350    0.27350    0.16180   1.00
O2       0.66180    0.22650    0.22650   1.00
O2       0.72650    0.16180    0.22650   1.00
O2       0.72650    0.22650    0.16180   1.00
C1       0.75000    0.25000    0.35520   1.00
C1       0.75000    0.35520    0.25000   1.00
C1       0.64480    0.25000    0.25000   1.00
C1       0.85520    0.25000    0.25000   1.00
C1       0.75000    0.14480    0.25000   1.00
C1       0.75000    0.25000    0.14480   1.00
O1       0.25000    0.25000    0.25000   1.00
Zn1      0.28280    0.21720    0.21720   1.00
Zn1      0.21720    0.28280    0.21720   1.00
Zn1      0.21720    0.21720    0.28280   1.00
Zn1      0.28280    0.28280    0.28280   1.00
O2       0.27350    0.22650    0.16180   1.00
O2       0.27350    0.16180    0.22650   1.00
O2       0.33820    0.22650    0.22650   1.00
O2       0.22650    0.27350    0.16180   1.00
O2       0.16180    0.27350    0.22650   1.00
O2       0.22650    0.33820    0.22650   1.00
O2       0.22650    0.16180    0.27350   1.00
O2       0.16180    0.22650    0.27350   1.00
O2       0.22650    0.22650    0.33820   1.00
O2       0.33820    0.27350    0.27350   1.00
O2       0.27350    0.33820    0.27350   1.00
O2       0.27350    0.27350    0.33820   1.00
C1       0.25000    0.25000    0.14480   1.00
C1       0.25000    0.14480    0.25000   1.00
C1       0.35520    0.25000    0.25000   1.00
C1       0.14480    0.25000    0.25000   1.00
C1       0.25000    0.35520    0.25000   1.00
C1       0.25000    0.25000    0.35520   1.00
O1       0.75000    0.75000    0.25000   1.00
Zn1      0.78280    0.71720    0.21720   1.00
Zn1      0.71720    0.78280    0.21720   1.00
Zn1      0.71720    0.71720    0.28280   1.00
Zn1      0.78280    0.78280    0.28280   1.00
O2       0.77350    0.72650    0.16180   1.00
O2       0.77350    0.66180    0.22650   1.00
O2       0.83820    0.72650    0.22650   1.00
O2       0.72650    0.77350    0.16180   1.00
O2       0.66180    0.77350    0.22650   1.00
O2       0.72650    0.83820    0.22650   1.00
O2       0.72650    0.66180    0.27350   1.00
O2       0.66180    0.72650    0.27350   1.00
O2       0.72650    0.72650    0.33820   1.00
O2       0.83820    0.77350    0.27350   1.00
O2       0.77350    0.83820    0.27350   1.00
O2       0.77350    0.77350    0.33820   1.00
C1       0.75000    0.75000    0.14480   1.00
C1       0.75000    0.64480    0.25000   1.00
C1       0.85520    0.75000    0.25000   1.00
C1       0.64480    0.75000    0.25000   1.00
C1       0.75000    0.85520    0.25000   1.00
C1       0.75000    0.75000    0.35520   1.00
O1       0.75000    0.25000    0.75000   1.00
Zn1      0.78280    0.21720    0.71720   1.00
Zn1      0.71720    0.28280    0.71720   1.00
Zn1      0.71720    0.21720    0.78280   1.00
Zn1      0.78280    0.28280    0.78280   1.00
O2       0.77350    0.22650    0.66180   1.00
O2       0.77350    0.16180    0.72650   1.00
O2       0.83820    0.22650    0.72650   1.00
O2       0.72650    0.27350    0.66180   1.00
O2       0.66180    0.27350    0.72650   1.00
O2       0.72650    0.33820    0.72650   1.00
O2       0.72650    0.16180    0.77350   1.00
O2       0.66180    0.22650    0.77350   1.00
O2       0.72650    0.22650    0.83820   1.00
O2       0.83820    0.27350    0.77350   1.00
O2       0.77350    0.33820    0.77350   1.00
O2       0.77350    0.27350    0.83820   1.00
C1       0.75000    0.25000    0.64480   1.00
C1       0.75000    0.14480    0.75000   1.00
C1       0.85520    0.25000    0.75000   1.00
C1       0.64480    0.25000    0.75000   1.00
C1       0.75000    0.35520    0.75000   1.00
C1       0.75000    0.25000    0.85520   1.00
O1       0.25000    0.75000    0.75000   1.00
Zn1      0.28280    0.71720    0.71720   1.00
Zn1      0.21720    0.78280    0.71720   1.00
Zn1      0.21720    0.71720    0.78280   1.00
Zn1      0.28280    0.78280    0.78280   1.00
O2       0.27350    0.72650    0.66180   1.00
O2       0.27350    0.66180    0.72650   1.00
O2       0.33820    0.72650    0.72650   1.00
O2       0.22650    0.77350    0.66180   1.00
O2       0.16180    0.77350    0.72650   1.00
O2       0.22650    0.83820    0.72650   1.00
O2       0.22650    0.66180    0.77350   1.00
O2       0.16180    0.72650    0.77350   1.00
O2       0.22650    0.72650    0.83820   1.00
O2       0.33820    0.77350    0.77350   1.00
O2       0.27350    0.83820    0.77350   1.00
O2       0.27350    0.77350    0.83820   1.00
C1       0.25000    0.75000    0.64480   1.00
C1       0.25000    0.64480    0.75000   1.00
C1       0.35520    0.75000    0.75000   1.00
C1       0.14480    0.75000    0.75000   1.00
C1       0.25000    0.85520    0.75000   1.00
C1       0.25000    0.75000    0.85520   1.00
O1       0.91500    0.91500    0.91500   1.00
Zn1      0.88220    0.94780    0.94780   1.00
Zn1      0.94780    0.88220    0.94780   1.00
Zn1      0.94780    0.94780    0.88220   1.00
Zn1      0.88220    0.88220    0.88220   1.00
O2       0.89150    0.93850    1.00320   1.00
O2       0.89150    1.00320    0.93850   1.00
O2       0.82680    0.93850    0.93850   1.00
O2       0.93850    0.89150    1.00320   1.00
O2       1.00320    0.89150    0.93850   1.00
O2       0.93850    0.82680    0.93850   1.00
O2       0.93850    1.00320    0.89150   1.00
O2       1.00320    0.93850    0.89150   1.00
O2       0.93850    0.93850    0.82680   1.00
O2       0.82680    0.89150    0.89150   1.00
O2       0.89150    0.82680    0.89150   1.00
O2       0.89150    0.89150    0.82680   1.00
C1       0.91500    0.91500    1.02020   1.00
C1       0.91500    1.02020    0.91500   1.00
C1       0.80980    0.91500    0.91500   1.00
C1       1.02020    0.91500    0.91500   1.00
C1       0.91500    0.80980    0.91500   1.00
C1       0.91500    0.91500    0.80980   1.00
O1       0.41500    0.41500    0.91500   1.00
Zn1      0.38220    0.44780    0.94780   1.00
Zn1      0.44780    0.38220    0.94780   1.00
Zn1      0.44780    0.44780    0.88220   1.00
Zn1      0.38220    0.38220    0.88220   1.00
O2       0.39150    0.43850    1.00320   1.00
O2       0.39150    0.50320    0.93850   1.00
O2       0.32680    0.43850    0.93850   1.00
O2       0.43850    0.39150    1.00320   1.00
O2       0.50320    0.39150    0.93850   1.00
O2       0.43850    0.32680    0.93850   1.00
O2       0.43850    0.50320    0.89150   1.00
O2       0.50320    0.43850    0.89150   1.00
O2       0.43850    0.43850    0.82680   1.00
O2       0.32680    0.39150    0.89150   1.00
O2       0.39150    0.32680    0.89150   1.00
O2       0.39150    0.39150    0.82680   1.00
C1       0.41500    0.41500    1.02020   1.00
C1       0.41500    0.52020    0.91500   1.00
C1       0.30980    0.41500    0.91500   1.00
C1       0.52020    0.41500    0.91500   1.00
C1       0.41500    0.30980    0.91500   1.00
C1       0.41500    0.41500    0.80980   1.00
O1       0.41500    0.91500    0.41500   1.00
Zn1      0.38220    0.94780    0.44780   1.00
Zn1      0.44780    0.88220    0.44780   1.00
Zn1      0.44780    0.94780    0.38220   1.00
Zn1      0.38220    0.88220    0.38220   1.00
O2       0.39150    0.93850    0.50320   1.00
O2       0.39150    1.00320    0.43850   1.00
O2       0.32680    0.93850    0.43850   1.00
O2       0.43850    0.89150    0.50320   1.00
O2       0.50320    0.89150    0.43850   1.00
O2       0.43850    0.82680    0.43850   1.00
O2       0.43850    1.00320    0.39150   1.00
O2       0.50320    0.93850    0.39150   1.00
O2       0.43850    0.93850    0.32680   1.00
O2       0.32680    0.89150    0.39150   1.00
O2       0.39150    0.82680    0.39150   1.00
O2       0.39150    0.89150    0.32680   1.00
C1       0.41500    0.91500    0.52020   1.00
C1       0.41500    1.02020    0.41500   1.00
C1       0.30980    0.91500    0.41500   1.00
C1       0.52020    0.91500    0.41500   1.00
C1       0.41500    0.80980    0.41500   1.00
C1       0.41500    0.91500    0.30980   1.00
O1       0.91500    0.41500    0.41500   1.00
Zn1      0.88220    0.44780    0.44780   1.00
Zn1      0.94780    0.38220    0.44780   1.00
Zn1      0.94780    0.44780    0.38220   1.00
Zn1      0.88220    0.38220    0.38220   1.00
O2       0.89150    0.43850    0.50320   1.00
O2       0.89150    0.50320    0.43850   1.00
O2       0.82680    0.43850    0.43850   1.00
O2       0.93850    0.39150    0.50320   1.00
O2       1.00320    0.39150    0.43850   1.00
O2       0.93850    0.32680    0.43850   1.00
O2       0.93850    0.50320    0.39150   1.00
O2       1.00320    0.43850    0.39150   1.00
O2       0.93850    0.43850    0.32680   1.00
O2       0.82680    0.39150    0.39150   1.00
O2       0.89150    0.32680    0.39150   1.00
O2       0.89150    0.39150    0.32680   1.00
C1       0.91500    0.41500    0.52020   1.00
C1       0.91500    0.52020    0.41500   1.00
C1       0.80980    0.41500    0.41500   1.00
C1       1.02020    0.41500    0.41500   1.00
C1       0.91500    0.30980    0.41500   1.00
C1       0.91500    0.41500    0.30980   1.00
O1       0.41500    0.41500    0.41500   1.00
Zn1      0.44780    0.38220    0.38220   1.00
Zn1      0.38220    0.44780    0.38220   1.00
Zn1      0.38220    0.38220    0.44780   1.00
Zn1      0.44780    0.44780    0.44780   1.00
O2       0.43850    0.39150    0.32680   1.00
O2       0.43850    0.32680    0.39150   1.00
O2       0.50320    0.39150    0.39150   1.00
O2       0.39150    0.43850    0.32680   1.00
O2       0.32680    0.43850    0.39150   1.00
O2       0.39150    0.50320    0.39150   1.00
O2       0.39150    0.32680    0.43850   1.00
O2       0.32680    0.39150    0.43850   1.00
O2       0.39150    0.39150    0.50320   1.00
O2       0.50320    0.43850    0.43850   1.00
O2       0.43850    0.50320    0.43850   1.00
O2       0.43850    0.43850    0.50320   1.00
C1       0.41500    0.41500    0.30980   1.00
C1       0.41500    0.30980    0.41500   1.00
C1       0.52020    0.41500    0.41500   1.00
C1       0.30980    0.41500    0.41500   1.00
C1       0.41500    0.52020    0.41500   1.00
C1       0.41500    0.41500    0.52020   1.00
O1       0.91500    0.91500    0.41500   1.00
Zn1      0.94780    0.88220    0.38220   1.00
Zn1      0.88220    0.94780    0.38220   1.00
Zn1      0.88220    0.88220    0.44780   1.00
Zn1      0.94780    0.94780    0.44780   1.00
O2       0.93850    0.89150    0.32680   1.00
O2       0.93850    0.82680    0.39150   1.00
O2       1.00320    0.89150    0.39150   1.00
O2       0.89150    0.93850    0.32680   1.00
O2       0.82680    0.93850    0.39150   1.00
O2       0.89150    1.00320    0.39150   1.00
O2       0.89150    0.82680    0.43850   1.00
O2       0.82680    0.89150    0.43850   1.00
O2       0.89150    0.89150    0.50320   1.00
O2       1.00320    0.93850    0.43850   1.00
O2       0.93850    1.00320    0.43850   1.00
O2       0.93850    0.93850    0.50320   1.00
C1       0.91500    0.91500    0.30980   1.00
C1       0.91500    0.80980    0.41500   1.00
C1       1.02020    0.91500    0.41500   1.00
C1       0.80980    0.91500    0.41500   1.00
C1       0.91500    1.02020    0.41500   1.00
C1       0.91500    0.91500    0.52020   1.00
O1       0.91500    0.41500    0.91500   1.00
Zn1      0.94780    0.38220    0.88220   1.00
Zn1      0.88220    0.44780    0.88220   1.00
Zn1      0.88220    0.38220    0.94780   1.00
Zn1      0.94780    0.44780    0.94780   1.00
O2       0.93850    0.39150    0.82680   1.00
O2       0.93850    0.32680    0.89150   1.00
O2       1.00320    0.39150    0.89150   1.00
O2       0.89150    0.43850    0.82680   1.00
O2       0.82680    0.43850    0.89150   1.00
O2       0.89150    0.50320    0.89150   1.00
O2       0.89150    0.32680    0.93850   1.00
O2       0.82680    0.39150    0.93850   1.00
O2       0.89150    0.39150    1.00320   1.00
O2       1.00320    0.43850    0.93850   1.00
O2       0.93850    0.50320    0.93850   1.00
O2       0.93850    0.43850    1.00320   1.00
C1       0.91500    0.41500    0.80980   1.00
C1       0.91500    0.30980    0.91500   1.00
C1       1.02020    0.41500    0.91500   1.00
C1       0.80980    0.41500    0.91500   1.00
C1       0.91500    0.52020    0.91500   1.00
C1       0.91500    0.41500    1.02020   1.00
O1       0.41500    0.91500    0.91500   1.00
Zn1      0.44780    0.88220    0.88220   1.00
Zn1      0.38220    0.94780    0.88220   1.00
Zn1      0.38220    0.88220    0.94780   1.00
Zn1      0.44780    0.94780    0.94780   1.00
O2       0.43850    0.89150    0.82680   1.00
O2       0.43850    0.82680    0.89150   1.00
O2       0.50320    0.89150    0.89150   1.00
O2       0.39150    0.93850    0.82680   1.00
O2       0.32680    0.93850    0.89150   1.00
O2       0.39150    1.00320    0.89150   1.00
O2       0.39150    0.82680    0.93850   1.00
O2       0.32680    0.89150    0.93850   1.00
O2       0.39150    0.89150    1.00320   1.00
O2       0.50320    0.93850    0.93850   1.00
O2       0.43850    1.00320    0.93850   1.00
O2       0.43850    0.93850    1.00320   1.00
C1       0.41500    0.91500    0.80980   1.00
C1       0.41500    0.80980    0.91500   1.00
C1       0.52020    0.91500    0.91500   1.00
C1       0.30980    0.91500    0.91500   1.00
C1       0.41500    1.02020    0.91500   1.00
C1       0.41500    0.91500    1.02020   1.00
C4       0.75281    0.75117    1.02084   1.00
C4       0.75255    0.75049    0.97912   1.00
C3       0.78690    0.74529    1.04364   1.00
C3       0.78553    0.74037    0.95616   1.00
C3       0.71704    0.75747    1.04123   1.00
C3       0.71756    0.76053    0.95886   1.00
C2       0.75057    0.75105    1.10512   1.00
C2       0.74943    0.74895    0.89488   1.00
C3       0.78581    0.74500    1.08462   1.00
C3       0.78414    0.73996    0.91519   1.00
C3       0.71667    0.75781    1.08258   1.00
C3       0.71631    0.75832    0.91762   1.00
H1       0.81355    0.74117    1.03115   1.00
H1       0.81146    0.73275    0.96852   1.00
C5       0.68189    0.76357    1.02020   1.00
C5       0.68392    0.77238    0.97980   1.00
H1       0.81134    0.74031    1.09955   1.00
H1       0.80899    0.73274    0.90010   1.00
H1       0.69100    0.76344    1.09680   1.00
H1       0.69038    0.76317    0.90368   1.00
O3       0.64668    0.76312    1.03961   1.00
O3       0.65261    0.78948    0.96099   1.00
Si1      0.62170    0.72264    1.04247   1.00
Si1      0.65353    0.83638    0.95279   1.00
C6       0.58587    0.73957    1.07538   1.00
C6       0.60159    0.71365    0.99598   1.00
C6       0.64855    0.68351    1.06253   1.00
C6       0.69551    0.86283    0.96693   1.00
C6       0.64777    0.83942    0.90198   1.00
C6       0.61164    0.85649    0.97477   1.00
C6       0.60145    0.76224    1.11194   1.00
H2       0.57045    0.76131    1.05791   1.00
C6       0.55344    0.71149    1.09147   1.00
H2       0.60033    0.74295    0.98358   1.00
C6       0.62572    0.68867    0.96634   1.00
C6       0.55899    0.69739    0.99336   1.00
H2       0.66171    0.69692    1.08831   1.00
C6       0.62487    0.64746    1.07772   1.00
C6       0.68295    0.66499    1.03849   1.00
C6       0.70827    0.86106    1.01071   1.00
C6       0.73382    0.85921    0.94225   1.00
H2       0.68641    0.89297    0.96212   1.00
H2       0.67530    0.82827    0.89051   1.00
C6       0.61539    0.81279    0.88378   1.00
C6       0.64214    0.88095    0.88393   1.00
H2       0.58839    0.85078    0.95375   1.00
C6       0.59769    0.83685    1.01336   1.00
C6       0.61089    0.90154    0.98244   1.00
H2       0.61981    0.78688    1.10346   1.00
H2       0.61863    0.74320    1.13090   1.00
H2       0.57743    0.77425    1.12917   1.00
H2       0.52631    0.72765    1.09608   1.00
H2       0.54697    0.68748    1.07178   1.00
H2       0.56130    0.69883    1.11964   1.00
H2       0.61436    0.69221    0.93672   1.00
H2       0.65620    0.69750    0.96532   1.00
H2       0.62428    0.65767    0.97352   1.00
H2       0.53837    0.71626    1.00862   1.00
H2       0.54896    0.69596    0.96308   1.00
H2       0.55713    0.66798    1.00550   1.00
H2       0.60545    0.63612    1.05514   1.00
H2       0.64395    0.62363    1.08708   1.00
H2       0.60771    0.65488    1.10332   1.00
H2       0.67288    0.64188    1.01902   1.00
H2       0.69860    0.68589    1.02068   1.00
H2       0.70433    0.65192    1.05828   1.00
H2       0.72561    0.83515    1.01688   1.00
H2       0.72632    0.88632    1.01809   1.00
H2       0.68342    0.86133    1.03048   1.00
H2       0.75511    0.88123    0.95125   1.00
H2       0.74778    0.83092    0.94574   1.00
H2       0.72862    0.86401    0.91122   1.00
H2       0.61845    0.81165    0.85202   1.00
H2       0.61768    0.78279    0.89435   1.00
H2       0.58611    0.82343    0.89035   1.00
H2       0.66433    0.90136    0.89416   1.00
H2       0.64463    0.87969    0.85212   1.00
H2       0.61340    0.89286    0.89085   1.00
H2       0.61933    0.83927    1.03656   1.00
H2       0.57037    0.84952    1.02381   1.00
H2       0.59227    0.80605    1.00834   1.00
H2       0.58154    0.91119    0.99044   1.00
H2       0.63053    0.90965    1.00622   1.00
H2       0.61923    0.91806    0.95657   1.00
C4       0.75117    1.02084    0.75281   1.00
C4       0.75049    0.97912    0.75255   1.00
C3       0.74529    1.04364    0.78690   1.00
C3       0.74037    0.95616    0.78553   1.00
C3       0.75747    1.04123    0.71704   1.00
C3       0.76053    0.95886    0.71756   1.00
C2       0.75105    1.10512    0.75057   1.00
C2       0.74895    0.89488    0.74943   1.00
C3       0.74500    1.08462    0.78581   1.00
C3       0.73996    0.91519    0.78414   1.00
C3       0.75781    1.08258    0.71667   1.00
C3       0.75832    0.91762    0.71631   1.00
H1       0.74117    1.03115    0.81355   1.00
H1       0.73275    0.96852    0.81146   1.00
C5       0.76357    1.02020    0.68189   1.00
C5       0.77238    0.97980    0.68392   1.00
H1       0.74031    1.09955    0.81134   1.00
H1       0.73274    0.90010    0.80899   1.00
H1       0.76344    1.09680    0.69100   1.00
H1       0.76317    0.90368    0.69038   1.00
O3       0.76312    1.03961    0.64668   1.00
O3       0.78948    0.96099    0.65261   1.00
Si1      0.72264    1.04247    0.62170   1.00
Si1      0.83638    0.95279    0.65353   1.00
C6       0.73957    1.07538    0.58587   1.00
C6       0.71365    0.99598    0.60159   1.00
C6       0.68351    1.06253    0.64855   1.00
C6       0.86283    0.96693    0.69551   1.00
C6       0.83942    0.90198    0.64777   1.00
C6       0.85649    0.97477    0.61164   1.00
C6       0.76224    1.11194    0.60145   1.00
H2       0.76131    1.05791    0.57045   1.00
C6       0.71149    1.09147    0.55344   1.00
H2       0.74295    0.98358    0.60033   1.00
C6       0.68867    0.96634    0.62572   1.00
C6       0.69739    0.99336    0.55899   1.00
H2       0.69692    1.08831    0.66171   1.00
C6       0.64746    1.07772    0.62487   1.00
C6       0.66499    1.03849    0.68295   1.00
C6       0.86106    1.01071    0.70827   1.00
C6       0.85921    0.94225    0.73382   1.00
H2       0.89297    0.96212    0.68641   1.00
H2       0.82827    0.89051    0.67530   1.00
C6       0.81279    0.88378    0.61539   1.00
C6       0.88095    0.88393    0.64214   1.00
H2       0.85078    0.95375    0.58839   1.00
C6       0.83685    1.01336    0.59769   1.00
C6       0.90154    0.98244    0.61089   1.00
H2       0.78688    1.10346    0.61981   1.00
H2       0.74320    1.13090    0.61863   1.00
H2       0.77425    1.12917    0.57743   1.00
H2       0.72765    1.09608    0.52631   1.00
H2       0.68748    1.07178    0.54697   1.00
H2       0.69883    1.11964    0.56130   1.00
H2       0.69221    0.93672    0.61436   1.00
H2       0.69750    0.96532    0.65620   1.00
H2       0.65767    0.97352    0.62428   1.00
H2       0.71626    1.00862    0.53837   1.00
H2       0.69596    0.96308    0.54896   1.00
H2       0.66798    1.00550    0.55713   1.00
H2       0.63612    1.05514    0.60545   1.00
H2       0.62363    1.08708    0.64395   1.00
H2       0.65488    1.10332    0.60771   1.00
H2       0.64188    1.01902    0.67288   1.00
H2       0.68589    1.02068    0.69860   1.00
H2       0.65192    1.05828    0.70433   1.00
H2       0.83515    1.01688    0.72561   1.00
H2       0.88632    1.01809    0.72632   1.00
H2       0.86133    1.03048    0.68342   1.00
H2       0.88123    0.95125    0.75511   1.00
H2       0.83092    0.94574    0.74778   1.00
H2       0.86401    0.91122    0.72862   1.00
H2       0.81165    0.85202    0.61845   1.00
H2       0.78279    0.89435    0.61768   1.00
H2       0.82343    0.89035    0.58611   1.00
H2       0.90136    0.89416    0.66433   1.00
H2       0.87969    0.85212    0.64463   1.00
H2       0.89286    0.89085    0.61340   1.00
H2       0.83927    1.03656    0.61933   1.00
H2       0.84952    1.02381    0.57037   1.00
H2       0.80605    1.00834    0.59227   1.00
H2       0.91119    0.99044    0.58154   1.00
H2       0.90965    1.00622    0.63053   1.00
H2       0.91806    0.95657    0.61923   1.00
C4       0.47916    0.75281    0.74883   1.00
C4       0.52088    0.75255    0.74951   1.00
C3       0.45636    0.78690    0.75471   1.00
C3       0.54384    0.78553    0.75963   1.00
C3       0.45877    0.71704    0.74253   1.00
C3       0.54114    0.71756    0.73947   1.00
C2       0.39488    0.75057    0.74895   1.00
C2       0.60512    0.74943    0.75105   1.00
C3       0.41538    0.78581    0.75500   1.00
C3       0.58481    0.78414    0.76004   1.00
C3       0.41742    0.71667    0.74219   1.00
C3       0.58238    0.71631    0.74168   1.00
H1       0.46885    0.81355    0.75883   1.00
H1       0.53148    0.81146    0.76725   1.00
C5       0.47980    0.68189    0.73643   1.00
C5       0.52020    0.68392    0.72762   1.00
H1       0.40045    0.81134    0.75969   1.00
H1       0.59990    0.80899    0.76726   1.00
H1       0.40320    0.69100    0.73656   1.00
H1       0.59632    0.69038    0.73683   1.00
O3       0.46039    0.64668    0.73688   1.00
O3       0.53901    0.65261    0.71052   1.00
Si1      0.45753    0.62170    0.77736   1.00
Si1      0.54721    0.65353    0.66362   1.00
C6       0.42462    0.58587    0.76043   1.00
C6       0.50402    0.60159    0.78635   1.00
C6       0.43747    0.64855    0.81649   1.00
C6       0.53307    0.69551    0.63717   1.00
C6       0.59802    0.64777    0.66058   1.00
C6       0.52523    0.61164    0.64351   1.00
C6       0.38806    0.60145    0.73776   1.00
H2       0.44209    0.57045    0.73869   1.00
C6       0.40853    0.55344    0.78851   1.00
H2       0.51642    0.60033    0.75705   1.00
C6       0.53366    0.62572    0.81133   1.00
C6       0.50664    0.55899    0.80261   1.00
H2       0.41169    0.66171    0.80308   1.00
C6       0.42228    0.62487    0.85254   1.00
C6       0.46151    0.68295    0.83501   1.00
C6       0.48929    0.70827    0.63894   1.00
C6       0.55775    0.73382    0.64079   1.00
H2       0.53788    0.68641    0.60703   1.00
H2       0.60949    0.67530    0.67173   1.00
C6       0.61622    0.61539    0.68721   1.00
C6       0.61607    0.64214    0.61905   1.00
H2       0.54625    0.58839    0.64922   1.00
C6       0.48664    0.59769    0.66315   1.00
C6       0.51756    0.61089    0.59846   1.00
H2       0.39654    0.61981    0.71312   1.00
H2       0.36910    0.61863    0.75680   1.00
H2       0.37083    0.57743    0.72575   1.00
H2       0.40392    0.52631    0.77235   1.00
H2       0.42822    0.54697    0.81252   1.00
H2       0.38036    0.56130    0.80117   1.00
H2       0.56328    0.61436    0.80779   1.00
H2       0.53468    0.65620    0.80250   1.00
H2       0.52648    0.62428    0.84233   1.00
H2       0.49138    0.53837    0.78374   1.00
H2       0.53692    0.54896    0.80404   1.00
H2       0.49450    0.55713    0.83202   1.00
H2       0.44486    0.60545    0.86388   1.00
H2       0.41292    0.64395    0.87637   1.00
H2       0.39668    0.60771    0.84512   1.00
H2       0.48098    0.67288    0.85812   1.00
H2       0.47932    0.69860    0.81411   1.00
H2       0.44172    0.70433    0.84808   1.00
H2       0.48312    0.72561    0.66485   1.00
H2       0.48191    0.72632    0.61368   1.00
H2       0.46952    0.68342    0.63867   1.00
H2       0.54875    0.75511    0.61877   1.00
H2       0.55426    0.74778    0.66908   1.00
H2       0.58878    0.72862    0.63599   1.00
H2       0.64798    0.61845    0.68835   1.00
H2       0.60565    0.61768    0.71721   1.00
H2       0.60965    0.58611    0.67657   1.00
H2       0.60584    0.66433    0.59864   1.00
H2       0.64788    0.64463    0.62031   1.00
H2       0.60915    0.61340    0.60714   1.00
H2       0.46344    0.61933    0.66073   1.00
H2       0.47619    0.57037    0.65048   1.00
H2       0.49166    0.59227    0.69395   1.00
H2       0.50956    0.58154    0.58881   1.00
H2       0.49378    0.63053    0.59035   1.00
H2       0.54343    0.61923    0.58194   1.00
C4       1.02084    0.75281    0.75117   1.00
C4       0.97912    0.75255    0.75049   1.00
C3       1.04364    0.78690    0.74529   1.00
C3       0.95616    0.78553    0.74037   1.00
C3       1.04123    0.71704    0.75747   1.00
C3       0.95886    0.71756    0.76053   1.00
C2       1.10512    0.75057    0.75105   1.00
C2       0.89488    0.74943    0.74895   1.00
C3       1.08462    0.78581    0.74500   1.00
C3       0.91519    0.78414    0.73996   1.00
C3       1.08258    0.71667    0.75781   1.00
C3       0.91762    0.71631    0.75832   1.00
H1       1.03115    0.81355    0.74117   1.00
H1       0.96852    0.81146    0.73275   1.00
C5       1.02020    0.68189    0.76357   1.00
C5       0.97980    0.68392    0.77238   1.00
H1       1.09955    0.81134    0.74031   1.00
H1       0.90010    0.80899    0.73274   1.00
H1       1.09680    0.69100    0.76344   1.00
H1       0.90368    0.69038    0.76317   1.00
O3       1.03961    0.64668    0.76312   1.00
O3       0.96099    0.65261    0.78948   1.00
Si1      1.04247    0.62170    0.72264   1.00
Si1      0.95279    0.65353    0.83638   1.00
C6       1.07538    0.58587    0.73957   1.00
C6       0.99598    0.60159    0.71365   1.00
C6       1.06253    0.64855    0.68351   1.00
C6       0.96693    0.69551    0.86283   1.00
C6       0.90198    0.64777    0.83942   1.00
C6       0.97477    0.61164    0.85649   1.00
C6       1.11194    0.60145    0.76224   1.00
H2       1.05791    0.57045    0.76131   1.00
C6       1.09147    0.55344    0.71149   1.00
H2       0.98358    0.60033    0.74295   1.00
C6       0.96634    0.62572    0.68867   1.00
C6       0.99336    0.55899    0.69739   1.00
H2       1.08831    0.66171    0.69692   1.00
C6       1.07772    0.62487    0.64746   1.00
C6       1.03849    0.68295    0.66499   1.00
C6       1.01071    0.70827    0.86106   1.00
C6       0.94225    0.73382    0.85921   1.00
H2       0.96212    0.68641    0.89297   1.00
H2       0.89051    0.67530    0.82827   1.00
C6       0.88378    0.61539    0.81279   1.00
C6       0.88393    0.64214    0.88095   1.00
H2       0.95375    0.58839    0.85078   1.00
C6       1.01336    0.59769    0.83685   1.00
C6       0.98244    0.61089    0.90154   1.00
H2       1.10346    0.61981    0.78688   1.00
H2       1.13090    0.61863    0.74320   1.00
H2       1.12917    0.57743    0.77425   1.00
H2       1.09608    0.52631    0.72765   1.00
H2       1.07178    0.54697    0.68748   1.00
H2       1.11964    0.56130    0.69883   1.00
H2       0.93672    0.61436    0.69221   1.00
H2       0.96532    0.65620    0.69750   1.00
H2       0.97352    0.62428    0.65767   1.00
H2       1.00862    0.53837    0.71626   1.00
H2       0.96308    0.54896    0.69596   1.00
H2       1.00550    0.55713    0.66798   1.00
H2       1.05514    0.60545    0.63612   1.00
H2       1.08708    0.64395    0.62363   1.00
H2       1.10332    0.60771    0.65488   1.00
H2       1.01902    0.67288    0.64188   1.00
H2       1.02068    0.69860    0.68589   1.00
H2       1.05828    0.70433    0.65192   1.00
H2       1.01688    0.72561    0.83515   1.00
H2       1.01809    0.72632    0.88632   1.00
H2       1.03048    0.68342    0.86133   1.00
H2       0.95125    0.75511    0.88123   1.00
H2       0.94574    0.74778    0.83092   1.00
H2       0.91122    0.72862    0.86401   1.00
H2       0.85202    0.61845    0.81165   1.00
H2       0.89435    0.61768    0.78279   1.00
H2       0.89035    0.58611    0.82343   1.00
H2       0.89416    0.66433    0.90136   1.00
H2       0.85212    0.64463    0.87969   1.00
H2       0.89085    0.61340    0.89286   1.00
H2       1.03656    0.61933    0.83927   1.00
H2       1.02381    0.57037    0.84952   1.00
H2       1.00834    0.59227    0.80605   1.00
H2       0.99044    0.58154    0.91119   1.00
H2       1.00622    0.63053    0.90965   1.00
H2       0.95657    0.61923    0.91806   1.00
C4       0.74883    0.47916    0.75281   1.00
C4       0.74951    0.52088    0.75255   1.00
C3       0.75471    0.45636    0.78690   1.00
C3       0.75963    0.54384    0.78553   1.00
C3       0.74253    0.45877    0.71704   1.00
C3       0.73947    0.54114    0.71756   1.00
C2       0.74895    0.39488    0.75057   1.00
C2       0.75105    0.60512    0.74943   1.00
C3       0.75500    0.41538    0.78581   1.00
C3       0.76004    0.58481    0.78414   1.00
C3       0.74219    0.41742    0.71667   1.00
C3       0.74168    0.58238    0.71631   1.00
H1       0.75883    0.46885    0.81355   1.00
H1       0.76725    0.53148    0.81146   1.00
C5       0.73643    0.47980    0.68189   1.00
C5       0.72762    0.52020    0.68392   1.00
H1       0.75969    0.40045    0.81134   1.00
H1       0.76726    0.59990    0.80899   1.00
H1       0.73656    0.40320    0.69100   1.00
H1       0.73683    0.59632    0.69038   1.00
O3       0.73688    0.46039    0.64668   1.00
O3       0.71052    0.53901    0.65261   1.00
Si1      0.77736    0.45753    0.62170   1.00
Si1      0.66362    0.54721    0.65353   1.00
C6       0.76043    0.42462    0.58587   1.00
C6       0.78635    0.50402    0.60159   1.00
C6       0.81649    0.43747    0.64855   1.00
C6       0.63717    0.53307    0.69551   1.00
C6       0.66058    0.59802    0.64777   1.00
C6       0.64351    0.52523    0.61164   1.00
C6       0.73776    0.38806    0.60145   1.00
H2       0.73869    0.44209    0.57045   1.00
C6       0.78851    0.40853    0.55344   1.00
H2       0.75705    0.51642    0.60033   1.00
C6       0.81133    0.53366    0.62572   1.00
C6       0.80261    0.50664    0.55899   1.00
H2       0.80308    0.41169    0.66171   1.00
C6       0.85254    0.42228    0.62487   1.00
C6       0.83501    0.46151    0.68295   1.00
C6       0.63894    0.48929    0.70827   1.00
C6       0.64079    0.55775    0.73382   1.00
H2       0.60703    0.53788    0.68641   1.00
H2       0.67173    0.60949    0.67530   1.00
C6       0.68721    0.61622    0.61539   1.00
C6       0.61905    0.61607    0.64214   1.00
H2       0.64922    0.54625    0.58839   1.00
C6       0.66315    0.48664    0.59769   1.00
C6       0.59846    0.51756    0.61089   1.00
H2       0.71312    0.39654    0.61981   1.00
H2       0.75680    0.36910    0.61863   1.00
H2       0.72575    0.37083    0.57743   1.00
H2       0.77235    0.40392    0.52631   1.00
H2       0.81252    0.42822    0.54697   1.00
H2       0.80117    0.38036    0.56130   1.00
H2       0.80779    0.56328    0.61436   1.00
H2       0.80250    0.53468    0.65620   1.00
H2       0.84233    0.52648    0.62428   1.00
H2       0.78374    0.49138    0.53837   1.00
H2       0.80404    0.53692    0.54896   1.00
H2       0.83202    0.49450    0.55713   1.00
H2       0.86388    0.44486    0.60545   1.00
H2       0.87637    0.41292    0.64395   1.00
H2       0.84512    0.39668    0.60771   1.00
H2       0.85812    0.48098    0.67288   1.00
H2       0.81411    0.47932    0.69860   1.00
H2       0.84808    0.44172    0.70433   1.00
H2       0.66485    0.48312    0.72561   1.00
H2       0.61368    0.48191    0.72632   1.00
H2       0.63867    0.46952    0.68342   1.00
H2       0.61877    0.54875    0.75511   1.00
H2       0.66908    0.55426    0.74778   1.00
H2       0.63599    0.58878    0.72862   1.00
H2       0.68835    0.64798    0.61845   1.00
H2       0.71721    0.60565    0.61768   1.00
H2       0.67657    0.60965    0.58611   1.00
H2       0.59864    0.60584    0.66433   1.00
H2       0.62031    0.64788    0.64463   1.00
H2       0.60714    0.60915    0.61340   1.00
H2       0.66073    0.46344    0.61933   1.00
H2       0.65048    0.47619    0.57037   1.00
H2       0.69395    0.49166    0.59227   1.00
H2       0.58881    0.50956    0.58154   1.00
H2       0.59035    0.49378    0.63053   1.00
H2       0.58194    0.54343    0.61923   1.00
C4       0.75281    0.74883    0.47916   1.00
C4       0.75255    0.74951    0.52088   1.00
C3       0.78690    0.75471    0.45636   1.00
C3       0.78553    0.75963    0.54384   1.00
C3       0.71704    0.74253    0.45877   1.00
C3       0.71756    0.73947    0.54114   1.00
C2       0.75057    0.74895    0.39488   1.00
C2       0.74943    0.75105    0.60512   1.00
C3       0.78581    0.75500    0.41538   1.00
C3       0.78414    0.76004    0.58481   1.00
C3       0.71667    0.74219    0.41742   1.00
C3       0.71631    0.74168    0.58238   1.00
H1       0.81355    0.75883    0.46885   1.00
H1       0.81146    0.76725    0.53148   1.00
C5       0.68189    0.73643    0.47980   1.00
C5       0.68392    0.72762    0.52020   1.00
H1       0.81134    0.75969    0.40045   1.00
H1       0.80899    0.76726    0.59990   1.00
H1       0.69100    0.73656    0.40320   1.00
H1       0.69038    0.73683    0.59632   1.00
O3       0.64668    0.73688    0.46039   1.00
O3       0.65261    0.71052    0.53901   1.00
Si1      0.62170    0.77736    0.45753   1.00
Si1      0.65353    0.66362    0.54721   1.00
C6       0.58587    0.76043    0.42462   1.00
C6       0.60159    0.78635    0.50402   1.00
C6       0.64855    0.81649    0.43747   1.00
C6       0.69551    0.63717    0.53307   1.00
C6       0.64777    0.66058    0.59802   1.00
C6       0.61164    0.64351    0.52523   1.00
C6       0.60145    0.73776    0.38806   1.00
H2       0.57045    0.73869    0.44209   1.00
C6       0.55344    0.78851    0.40853   1.00
H2       0.60033    0.75705    0.51642   1.00
C6       0.62572    0.81133    0.53366   1.00
C6       0.55899    0.80261    0.50664   1.00
H2       0.66171    0.80308    0.41169   1.00
C6       0.62487    0.85254    0.42228   1.00
C6       0.68295    0.83501    0.46151   1.00
C6       0.70827    0.63894    0.48929   1.00
C6       0.73382    0.64079    0.55775   1.00
H2       0.68641    0.60703    0.53788   1.00
H2       0.67530    0.67173    0.60949   1.00
C6       0.61539    0.68721    0.61622   1.00
C6       0.64214    0.61905    0.61607   1.00
H2       0.58839    0.64922    0.54625   1.00
C6       0.59769    0.66315    0.48664   1.00
C6       0.61089    0.59846    0.51756   1.00
H2       0.61981    0.71312    0.39654   1.00
H2       0.61863    0.75680    0.36910   1.00
H2       0.57743    0.72575    0.37083   1.00
H2       0.52631    0.77235    0.40392   1.00
H2       0.54697    0.81252    0.42822   1.00
H2       0.56130    0.80117    0.38036   1.00
H2       0.61436    0.80779    0.56328   1.00
H2       0.65620    0.80250    0.53468   1.00
H2       0.62428    0.84233    0.52648   1.00
H2       0.53837    0.78374    0.49138   1.00
H2       0.54896    0.80404    0.53692   1.00
H2       0.55713    0.83202    0.49450   1.00
H2       0.60545    0.86388    0.44486   1.00
H2       0.64395    0.87637    0.41292   1.00
H2       0.60771    0.84512    0.39668   1.00
H2       0.67288    0.85812    0.48098   1.00
H2       0.69860    0.81411    0.47932   1.00
H2       0.70433    0.84808    0.44172   1.00
H2       0.72561    0.66485    0.48312   1.00
H2       0.72632    0.61368    0.48191   1.00
H2       0.68342    0.63867    0.46952   1.00
H2       0.75511    0.61877    0.54875   1.00
H2       0.74778    0.66908    0.55426   1.00
H2       0.72862    0.63599    0.58878   1.00
H2       0.61845    0.68835    0.64798   1.00
H2       0.61768    0.71721    0.60565   1.00
H2       0.58611    0.67657    0.60965   1.00
H2       0.66433    0.59864    0.60584   1.00
H2       0.64463    0.62031    0.64788   1.00
H2       0.61340    0.60714    0.60915   1.00
H2       0.61933    0.66073    0.46344   1.00
H2       0.57037    0.65048    0.47619   1.00
H2       0.59227    0.69395    0.49166   1.00
H2       0.58154    0.58881    0.50956   1.00
H2       0.63053    0.59035    0.49378   1.00
H2       0.61923    0.58194    0.54343   1.00
C4       0.25281    0.25117    1.02084   1.00
C4       0.25255    0.25049    0.97912   1.00
C3       0.28690    0.24529    1.04364   1.00
C3       0.28553    0.24037    0.95616   1.00
C3       0.21704    0.25747    1.04123   1.00
C3       0.21756    0.26053    0.95886   1.00
C2       0.25057    0.25105    1.10512   1.00
C2       0.24943    0.24895    0.89488   1.00
C3       0.28581    0.24500    1.08462   1.00
C3       0.28414    0.23996    0.91519   1.00
C3       0.21667    0.25781    1.08258   1.00
C3       0.21631    0.25832    0.91762   1.00
H1       0.31355    0.24117    1.03115   1.00
H1       0.31146    0.23275    0.96852   1.00
C5       0.18189    0.26357    1.02020   1.00
C5       0.18392    0.27238    0.97980   1.00
H1       0.31134    0.24031    1.09955   1.00
H1       0.30899    0.23274    0.90010   1.00
H1       0.19100    0.26344    1.09680   1.00
H1       0.19038    0.26317    0.90368   1.00
O3       0.14668    0.26312    1.03961   1.00
O3       0.15261    0.28948    0.96099   1.00
Si1      0.12170    0.22264    1.04247   1.00
Si1      0.15353    0.33638    0.95279   1.00
C6       0.08587    0.23957    1.07538   1.00
C6       0.10159    0.21365    0.99598   1.00
C6       0.14855    0.18351    1.06253   1.00
C6       0.19551    0.36283    0.96693   1.00
C6       0.14777    0.33942    0.90198   1.00
C6       0.11164    0.35649    0.97477   1.00
C6       0.10145    0.26224    1.11194   1.00
H2       0.07045    0.26131    1.05791   1.00
C6       0.05344    0.21149    1.09147   1.00
H2       0.10033    0.24295    0.98358   1.00
C6       0.12572    0.18867    0.96634   1.00
C6       0.05899    0.19739    0.99336   1.00
H2       0.16171    0.19692    1.08831   1.00
C6       0.12487    0.14746    1.07772   1.00
C6       0.18295    0.16499    1.03849   1.00
C6       0.20827    0.36106    1.01071   1.00
C6       0.23382    0.35921    0.94225   1.00
H2       0.18641    0.39297    0.96212   1.00
H2       0.17530    0.32827    0.89051   1.00
C6       0.11539    0.31279    0.88378   1.00
C6       0.14214    0.38095    0.88393   1.00
H2       0.08839    0.35078    0.95375   1.00
C6       0.09769    0.33685    1.01336   1.00
C6       0.11089    0.40154    0.98244   1.00
H2       0.11981    0.28688    1.10346   1.00
H2       0.11863    0.24320    1.13090   1.00
H2       0.07743    0.27425    1.12917   1.00
H2       0.02631    0.22765    1.09608   1.00
H2       0.04697    0.18748    1.07178   1.00
H2       0.06130    0.19883    1.11964   1.00
H2       0.11436    0.19221    0.93672   1.00
H2       0.15620    0.19750    0.96532   1.00
H2       0.12428    0.15767    0.97352   1.00
H2       0.03837    0.21626    1.00862   1.00
H2       0.04896    0.19596    0.96308   1.00
H2       0.05713    0.16798    1.00550   1.00
H2       0.10545    0.13612    1.05514   1.00
H2       0.14395    0.12363    1.08708   1.00
H2       0.10771    0.15488    1.10332   1.00
H2       0.17288    0.14188    1.01902   1.00
H2       0.19860    0.18589    1.02068   1.00
H2       0.20433    0.15192    1.05828   1.00
H2       0.22561    0.33515    1.01688   1.00
H2       0.22632    0.38632    1.01809   1.00
H2       0.18342    0.36133    1.03048   1.00
H2       0.25511    0.38123    0.95125   1.00
H2       0.24778    0.33092    0.94574   1.00
H2       0.22862    0.36401    0.91122   1.00
H2       0.11845    0.31165    0.85202   1.00
H2       0.11768    0.28279    0.89435   1.00
H2       0.08611    0.32343    0.89035   1.00
H2       0.16433    0.40136    0.89416   1.00
H2       0.14463    0.37969    0.85212   1.00
H2       0.11340    0.39286    0.89085   1.00
H2       0.11933    0.33927    1.03656   1.00
H2       0.07037    0.34952    1.02381   1.00
H2       0.09227    0.30605    1.00834   1.00
H2       0.08154    0.41119    0.99044   1.00
H2       0.13053    0.40965    1.00622   1.00
H2       0.11923    0.41806    0.95657   1.00
C4       0.25117    0.52084    0.75281   1.00
C4       0.25049    0.47912    0.75255   1.00
C3       0.24529    0.54364    0.78690   1.00
C3       0.24037    0.45616    0.78553   1.00
C3       0.25747    0.54123    0.71704   1.00
C3       0.26053    0.45886    0.71756   1.00
C2       0.25105    0.60512    0.75057   1.00
C2       0.24895    0.39488    0.74943   1.00
C3       0.24500    0.58462    0.78581   1.00
C3       0.23996    0.41519    0.78414   1.00
C3       0.25781    0.58258    0.71667   1.00
C3       0.25832    0.41762    0.71631   1.00
H1       0.24117    0.53115    0.81355   1.00
H1       0.23275    0.46852    0.81146   1.00
C5       0.26357    0.52020    0.68189   1.00
C5       0.27238    0.47980    0.68392   1.00
H1       0.24031    0.59955    0.81134   1.00
H1       0.23274    0.40010    0.80899   1.00
H1       0.26344    0.59680    0.69100   1.00
H1       0.26317    0.40368    0.69038   1.00
O3       0.26312    0.53961    0.64668   1.00
O3       0.28948    0.46099    0.65261   1.00
Si1      0.22264    0.54247    0.62170   1.00
Si1      0.33638    0.45279    0.65353   1.00
C6       0.23957    0.57538    0.58587   1.00
C6       0.21365    0.49598    0.60159   1.00
C6       0.18351    0.56253    0.64855   1.00
C6       0.36283    0.46693    0.69551   1.00
C6       0.33942    0.40198    0.64777   1.00
C6       0.35649    0.47477    0.61164   1.00
C6       0.26224    0.61194    0.60145   1.00
H2       0.26131    0.55791    0.57045   1.00
C6       0.21149    0.59147    0.55344   1.00
H2       0.24295    0.48358    0.60033   1.00
C6       0.18867    0.46634    0.62572   1.00
C6       0.19739    0.49336    0.55899   1.00
H2       0.19692    0.58831    0.66171   1.00
C6       0.14746    0.57772    0.62487   1.00
C6       0.16499    0.53849    0.68295   1.00
C6       0.36106    0.51071    0.70827   1.00
C6       0.35921    0.44225    0.73382   1.00
H2       0.39297    0.46212    0.68641   1.00
H2       0.32827    0.39051    0.67530   1.00
C6       0.31279    0.38378    0.61539   1.00
C6       0.38095    0.38393    0.64214   1.00
H2       0.35078    0.45375    0.58839   1.00
C6       0.33685    0.51336    0.59769   1.00
C6       0.40154    0.48244    0.61089   1.00
H2       0.28688    0.60346    0.61981   1.00
H2       0.24320    0.63090    0.61863   1.00
H2       0.27425    0.62917    0.57743   1.00
H2       0.22765    0.59608    0.52631   1.00
H2       0.18748    0.57178    0.54697   1.00
H2       0.19883    0.61964    0.56130   1.00
H2       0.19221    0.43672    0.61436   1.00
H2       0.19750    0.46532    0.65620   1.00
H2       0.15767    0.47352    0.62428   1.00
H2       0.21626    0.50862    0.53837   1.00
H2       0.19596    0.46308    0.54896   1.00
H2       0.16798    0.50550    0.55713   1.00
H2       0.13612    0.55514    0.60545   1.00
H2       0.12363    0.58708    0.64395   1.00
H2       0.15488    0.60332    0.60771   1.00
H2       0.14188    0.51902    0.67288   1.00
H2       0.18589    0.52068    0.69860   1.00
H2       0.15192    0.55828    0.70433   1.00
H2       0.33515    0.51688    0.72561   1.00
H2       0.38632    0.51809    0.72632   1.00
H2       0.36133    0.53048    0.68342   1.00
H2       0.38123    0.45125    0.75511   1.00
H2       0.33092    0.44574    0.74778   1.00
H2       0.36401    0.41122    0.72862   1.00
H2       0.31165    0.35202    0.61845   1.00
H2       0.28279    0.39435    0.61768   1.00
H2       0.32343    0.39035    0.58611   1.00
H2       0.40136    0.39416    0.66433   1.00
H2       0.37969    0.35212    0.64463   1.00
H2       0.39286    0.39085    0.61340   1.00
H2       0.33927    0.53656    0.61933   1.00
H2       0.34952    0.52381    0.57037   1.00
H2       0.30605    0.50834    0.59227   1.00
H2       0.41119    0.49044    0.58154   1.00
H2       0.40965    0.50622    0.63053   1.00
H2       0.41806    0.45657    0.61923   1.00
C4       -0.02084   0.25281    0.74883   1.00
C4       0.02088    0.25255    0.74951   1.00
C3       -0.04364   0.28690    0.75471   1.00
C3       0.04384    0.28553    0.75963   1.00
C3       -0.04123   0.21704    0.74253   1.00
C3       0.04114    0.21756    0.73947   1.00
C2       -0.10512   0.25057    0.74895   1.00
C2       0.10512    0.24943    0.75105   1.00
C3       -0.08462   0.28581    0.75500   1.00
C3       0.08481    0.28414    0.76004   1.00
C3       -0.08258   0.21667    0.74219   1.00
C3       0.08238    0.21631    0.74168   1.00
H1       -0.03115   0.31355    0.75883   1.00
H1       0.03148    0.31146    0.76725   1.00
C5       -0.02020   0.18189    0.73643   1.00
C5       0.02020    0.18392    0.72762   1.00
H1       -0.09955   0.31134    0.75969   1.00
H1       0.09990    0.30899    0.76726   1.00
H1       -0.09680   0.19100    0.73656   1.00
H1       0.09632    0.19038    0.73683   1.00
O3       -0.03961   0.14668    0.73688   1.00
O3       0.03901    0.15261    0.71052   1.00
Si1      -0.04247   0.12170    0.77736   1.00
Si1      0.04721    0.15353    0.66362   1.00
C6       -0.07538   0.08587    0.76043   1.00
C6       0.00402    0.10159    0.78635   1.00
C6       -0.06253   0.14855    0.81649   1.00
C6       0.03307    0.19551    0.63717   1.00
C6       0.09802    0.14777    0.66058   1.00
C6       0.02523    0.11164    0.64351   1.00
C6       -0.11194   0.10145    0.73776   1.00
H2       -0.05791   0.07045    0.73869   1.00
C6       -0.09147   0.05344    0.78851   1.00
H2       0.01642    0.10033    0.75705   1.00
C6       0.03366    0.12572    0.81133   1.00
C6       0.00664    0.05899    0.80261   1.00
H2       -0.08831   0.16171    0.80308   1.00
C6       -0.07772   0.12487    0.85254   1.00
C6       -0.03849   0.18295    0.83501   1.00
C6       -0.01071   0.20827    0.63894   1.00
C6       0.05775    0.23382    0.64079   1.00
H2       0.03788    0.18641    0.60703   1.00
H2       0.10949    0.17530    0.67173   1.00
C6       0.11622    0.11539    0.68721   1.00
C6       0.11607    0.14214    0.61905   1.00
H2       0.04625    0.08839    0.64922   1.00
C6       -0.01336   0.09769    0.66315   1.00
C6       0.01756    0.11089    0.59846   1.00
H2       -0.10346   0.11981    0.71312   1.00
H2       -0.13090   0.11863    0.75680   1.00
H2       -0.12917   0.07743    0.72575   1.00
H2       -0.09608   0.02631    0.77235   1.00
H2       -0.07178   0.04697    0.81252   1.00
H2       -0.11964   0.06130    0.80117   1.00
H2       0.06328    0.11436    0.80779   1.00
H2       0.03468    0.15620    0.80250   1.00
H2       0.02648    0.12428    0.84233   1.00
H2       -0.00862   0.03837    0.78374   1.00
H2       0.03692    0.04896    0.80404   1.00
H2       -0.00550   0.05713    0.83202   1.00
H2       -0.05514   0.10545    0.86388   1.00
H2       -0.08708   0.14395    0.87637   1.00
H2       -0.10332   0.10771    0.84512   1.00
H2       -0.01902   0.17288    0.85812   1.00
H2       -0.02068   0.19860    0.81411   1.00
H2       -0.05828   0.20433    0.84808   1.00
H2       -0.01688   0.22561    0.66485   1.00
H2       -0.01809   0.22632    0.61368   1.00
H2       -0.03048   0.18342    0.63867   1.00
H2       0.04875    0.25511    0.61877   1.00
H2       0.05426    0.24778    0.66908   1.00
H2       0.08878    0.22862    0.63599   1.00
H2       0.14798    0.11845    0.68835   1.00
H2       0.10565    0.11768    0.71721   1.00
H2       0.10965    0.08611    0.67657   1.00
H2       0.10584    0.16433    0.59864   1.00
H2       0.14788    0.14463    0.62031   1.00
H2       0.10915    0.11340    0.60714   1.00
H2       -0.03656   0.11933    0.66073   1.00
H2       -0.02381   0.07037    0.65048   1.00
H2       -0.00834   0.09227    0.69395   1.00
H2       0.00956    0.08154    0.58881   1.00
H2       -0.00622   0.13053    0.59035   1.00
H2       0.04343    0.11923    0.58194   1.00
C4       0.52084    0.25281    0.75117   1.00
C4       0.47912    0.25255    0.75049   1.00
C3       0.54364    0.28690    0.74529   1.00
C3       0.45616    0.28553    0.74037   1.00
C3       0.54123    0.21704    0.75747   1.00
C3       0.45886    0.21756    0.76053   1.00
C2       0.60512    0.25057    0.75105   1.00
C2       0.39488    0.24943    0.74895   1.00
C3       0.58462    0.28581    0.74500   1.00
C3       0.41519    0.28414    0.73996   1.00
C3       0.58258    0.21667    0.75781   1.00
C3       0.41762    0.21631    0.75832   1.00
H1       0.53115    0.31355    0.74117   1.00
H1       0.46852    0.31146    0.73275   1.00
C5       0.52020    0.18189    0.76357   1.00
C5       0.47980    0.18392    0.77238   1.00
H1       0.59955    0.31134    0.74031   1.00
H1       0.40010    0.30899    0.73274   1.00
H1       0.59680    0.19100    0.76344   1.00
H1       0.40368    0.19038    0.76317   1.00
O3       0.53961    0.14668    0.76312   1.00
O3       0.46099    0.15261    0.78948   1.00
Si1      0.54247    0.12170    0.72264   1.00
Si1      0.45279    0.15353    0.83638   1.00
C6       0.57538    0.08587    0.73957   1.00
C6       0.49598    0.10159    0.71365   1.00
C6       0.56253    0.14855    0.68351   1.00
C6       0.46693    0.19551    0.86283   1.00
C6       0.40198    0.14777    0.83942   1.00
C6       0.47477    0.11164    0.85649   1.00
C6       0.61194    0.10145    0.76224   1.00
H2       0.55791    0.07045    0.76131   1.00
C6       0.59147    0.05344    0.71149   1.00
H2       0.48358    0.10033    0.74295   1.00
C6       0.46634    0.12572    0.68867   1.00
C6       0.49336    0.05899    0.69739   1.00
H2       0.58831    0.16171    0.69692   1.00
C6       0.57772    0.12487    0.64746   1.00
C6       0.53849    0.18295    0.66499   1.00
C6       0.51071    0.20827    0.86106   1.00
C6       0.44225    0.23382    0.85921   1.00
H2       0.46212    0.18641    0.89297   1.00
H2       0.39051    0.17530    0.82827   1.00
C6       0.38378    0.11539    0.81279   1.00
C6       0.38393    0.14214    0.88095   1.00
H2       0.45375    0.08839    0.85078   1.00
C6       0.51336    0.09769    0.83685   1.00
C6       0.48244    0.11089    0.90154   1.00
H2       0.60346    0.11981    0.78688   1.00
H2       0.63090    0.11863    0.74320   1.00
H2       0.62917    0.07743    0.77425   1.00
H2       0.59608    0.02631    0.72765   1.00
H2       0.57178    0.04697    0.68748   1.00
H2       0.61964    0.06130    0.69883   1.00
H2       0.43672    0.11436    0.69221   1.00
H2       0.46532    0.15620    0.69750   1.00
H2       0.47352    0.12428    0.65767   1.00
H2       0.50862    0.03837    0.71626   1.00
H2       0.46308    0.04896    0.69596   1.00
H2       0.50550    0.05713    0.66798   1.00
H2       0.55514    0.10545    0.63612   1.00
H2       0.58708    0.14395    0.62363   1.00
H2       0.60332    0.10771    0.65488   1.00
H2       0.51902    0.17288    0.64188   1.00
H2       0.52068    0.19860    0.68589   1.00
H2       0.55828    0.20433    0.65192   1.00
H2       0.51688    0.22561    0.83515   1.00
H2       0.51809    0.22632    0.88632   1.00
H2       0.53048    0.18342    0.86133   1.00
H2       0.45125    0.25511    0.88123   1.00
H2       0.44574    0.24778    0.83092   1.00
H2       0.41122    0.22862    0.86401   1.00
H2       0.35202    0.11845    0.81165   1.00
H2       0.39435    0.11768    0.78279   1.00
H2       0.39035    0.08611    0.82343   1.00
H2       0.39416    0.16433    0.90136   1.00
H2       0.35212    0.14463    0.87969   1.00
H2       0.39085    0.11340    0.89286   1.00
H2       0.53656    0.11933    0.83927   1.00
H2       0.52381    0.07037    0.84952   1.00
H2       0.50834    0.09227    0.80605   1.00
H2       0.49044    0.08154    0.91119   1.00
H2       0.50622    0.13053    0.90965   1.00
H2       0.45657    0.11923    0.91806   1.00
C4       0.24883    -0.02084   0.75281   1.00
C4       0.24951    0.02088    0.75255   1.00
C3       0.25471    -0.04364   0.78690   1.00
C3       0.25963    0.04384    0.78553   1.00
C3       0.24253    -0.04123   0.71704   1.00
C3       0.23947    0.04114    0.71756   1.00
C2       0.24895    -0.10512   0.75057   1.00
C2       0.25105    0.10512    0.74943   1.00
C3       0.25500    -0.08462   0.78581   1.00
C3       0.26004    0.08481    0.78414   1.00
C3       0.24219    -0.08258   0.71667   1.00
C3       0.24168    0.08238    0.71631   1.00
H1       0.25883    -0.03115   0.81355   1.00
H1       0.26725    0.03148    0.81146   1.00
C5       0.23643    -0.02020   0.68189   1.00
C5       0.22762    0.02020    0.68392   1.00
H1       0.25969    -0.09955   0.81134   1.00
H1       0.26726    0.09990    0.80899   1.00
H1       0.23656    -0.09680   0.69100   1.00
H1       0.23683    0.09632    0.69038   1.00
O3       0.23688    -0.03961   0.64668   1.00
O3       0.21052    0.03901    0.65261   1.00
Si1      0.27736    -0.04247   0.62170   1.00
Si1      0.16362    0.04721    0.65353   1.00
C6       0.26043    -0.07538   0.58587   1.00
C6       0.28635    0.00402    0.60159   1.00
C6       0.31649    -0.06253   0.64855   1.00
C6       0.13717    0.03307    0.69551   1.00
C6       0.16058    0.09802    0.64777   1.00
C6       0.14351    0.02523    0.61164   1.00
C6       0.23776    -0.11194   0.60145   1.00
H2       0.23869    -0.05791   0.57045   1.00
C6       0.28851    -0.09147   0.55344   1.00
H2       0.25705    0.01642    0.60033   1.00
C6       0.31133    0.03366    0.62572   1.00
C6       0.30261    0.00664    0.55899   1.00
H2       0.30308    -0.08831   0.66171   1.00
C6       0.35254    -0.07772   0.62487   1.00
C6       0.33501    -0.03849   0.68295   1.00
C6       0.13894    -0.01071   0.70827   1.00
C6       0.14079    0.05775    0.73382   1.00
H2       0.10703    0.03788    0.68641   1.00
H2       0.17173    0.10949    0.67530   1.00
C6       0.18721    0.11622    0.61539   1.00
C6       0.11905    0.11607    0.64214   1.00
H2       0.14922    0.04625    0.58839   1.00
C6       0.16315    -0.01336   0.59769   1.00
C6       0.09846    0.01756    0.61089   1.00
H2       0.21312    -0.10346   0.61981   1.00
H2       0.25680    -0.13090   0.61863   1.00
H2       0.22575    -0.12917   0.57743   1.00
H2       0.27235    -0.09608   0.52631   1.00
H2       0.31252    -0.07178   0.54697   1.00
H2       0.30117    -0.11964   0.56130   1.00
H2       0.30779    0.06328    0.61436   1.00
H2       0.30250    0.03468    0.65620   1.00
H2       0.34233    0.02648    0.62428   1.00
H2       0.28374    -0.00862   0.53837   1.00
H2       0.30404    0.03692    0.54896   1.00
H2       0.33202    -0.00550   0.55713   1.00
H2       0.36388    -0.05514   0.60545   1.00
H2       0.37637    -0.08708   0.64395   1.00
H2       0.34512    -0.10332   0.60771   1.00
H2       0.35812    -0.01902   0.67288   1.00
H2       0.31411    -0.02068   0.69860   1.00
H2       0.34808    -0.05828   0.70433   1.00
H2       0.16485    -0.01688   0.72561   1.00
H2       0.11368    -0.01809   0.72632   1.00
H2       0.13867    -0.03048   0.68342   1.00
H2       0.11877    0.04875    0.75511   1.00
H2       0.16908    0.05426    0.74778   1.00
H2       0.13599    0.08878    0.72862   1.00
H2       0.18835    0.14798    0.61845   1.00
H2       0.21721    0.10565    0.61768   1.00
H2       0.17657    0.10965    0.58611   1.00
H2       0.09864    0.10584    0.66433   1.00
H2       0.12031    0.14788    0.64463   1.00
H2       0.10714    0.10915    0.61340   1.00
H2       0.16073    -0.03656   0.61933   1.00
H2       0.15048    -0.02381   0.57037   1.00
H2       0.19395    -0.00834   0.59227   1.00
H2       0.08881    0.00956    0.58154   1.00
H2       0.09035    -0.00622   0.63053   1.00
H2       0.08194    0.04343    0.61923   1.00
C4       0.25281    0.24883    0.47916   1.00
C4       0.25255    0.24951    0.52088   1.00
C3       0.28690    0.25471    0.45636   1.00
C3       0.28553    0.25963    0.54384   1.00
C3       0.21704    0.24253    0.45877   1.00
C3       0.21756    0.23947    0.54114   1.00
C2       0.25057    0.24895    0.39488   1.00
C2       0.24943    0.25105    0.60512   1.00
C3       0.28581    0.25500    0.41538   1.00
C3       0.28414    0.26004    0.58481   1.00
C3       0.21667    0.24219    0.41742   1.00
C3       0.21631    0.24168    0.58238   1.00
H1       0.31355    0.25883    0.46885   1.00
H1       0.31146    0.26725    0.53148   1.00
C5       0.18189    0.23643    0.47980   1.00
C5       0.18392    0.22762    0.52020   1.00
H1       0.31134    0.25969    0.40045   1.00
H1       0.30899    0.26726    0.59990   1.00
H1       0.19100    0.23656    0.40320   1.00
H1       0.19038    0.23683    0.59632   1.00
O3       0.14668    0.23688    0.46039   1.00
O3       0.15261    0.21052    0.53901   1.00
Si1      0.12170    0.27736    0.45753   1.00
Si1      0.15353    0.16362    0.54721   1.00
C6       0.08587    0.26043    0.42462   1.00
C6       0.10159    0.28635    0.50402   1.00
C6       0.14855    0.31649    0.43747   1.00
C6       0.19551    0.13717    0.53307   1.00
C6       0.14777    0.16058    0.59802   1.00
C6       0.11164    0.14351    0.52523   1.00
C6       0.10145    0.23776    0.38806   1.00
H2       0.07045    0.23869    0.44209   1.00
C6       0.05344    0.28851    0.40853   1.00
H2       0.10033    0.25705    0.51642   1.00
C6       0.12572    0.31133    0.53366   1.00
C6       0.05899    0.30261    0.50664   1.00
H2       0.16171    0.30308    0.41169   1.00
C6       0.12487    0.35254    0.42228   1.00
C6       0.18295    0.33501    0.46151   1.00
C6       0.20827    0.13894    0.48929   1.00
C6       0.23382    0.14079    0.55775   1.00
H2       0.18641    0.10703    0.53788   1.00
H2       0.17530    0.17173    0.60949   1.00
C6       0.11539    0.18721    0.61622   1.00
C6       0.14214    0.11905    0.61607   1.00
H2       0.08839    0.14922    0.54625   1.00
C6       0.09769    0.16315    0.48664   1.00
C6       0.11089    0.09846    0.51756   1.00
H2       0.11981    0.21312    0.39654   1.00
H2       0.11863    0.25680    0.36910   1.00
H2       0.07743    0.22575    0.37083   1.00
H2       0.02631    0.27235    0.40392   1.00
H2       0.04697    0.31252    0.42822   1.00
H2       0.06130    0.30117    0.38036   1.00
H2       0.11436    0.30779    0.56328   1.00
H2       0.15620    0.30250    0.53468   1.00
H2       0.12428    0.34233    0.52648   1.00
H2       0.03837    0.28374    0.49138   1.00
H2       0.04896    0.30404    0.53692   1.00
H2       0.05713    0.33202    0.49450   1.00
H2       0.10545    0.36388    0.44486   1.00
H2       0.14395    0.37637    0.41292   1.00
H2       0.10771    0.34512    0.39668   1.00
H2       0.17288    0.35812    0.48098   1.00
H2       0.19860    0.31411    0.47932   1.00
H2       0.20433    0.34808    0.44172   1.00
H2       0.22561    0.16485    0.48312   1.00
H2       0.22632    0.11368    0.48191   1.00
H2       0.18342    0.13867    0.46952   1.00
H2       0.25511    0.11877    0.54875   1.00
H2       0.24778    0.16908    0.55426   1.00
H2       0.22862    0.13599    0.58878   1.00
H2       0.11845    0.18835    0.64798   1.00
H2       0.11768    0.21721    0.60565   1.00
H2       0.08611    0.17657    0.60965   1.00
H2       0.16433    0.09864    0.60584   1.00
H2       0.14463    0.12031    0.64788   1.00
H2       0.11340    0.10714    0.60915   1.00
H2       0.11933    0.16073    0.46344   1.00
H2       0.07037    0.15048    0.47619   1.00
H2       0.09227    0.19395    0.49166   1.00
H2       0.08154    0.08881    0.50956   1.00
H2       0.13053    0.09035    0.49378   1.00
H2       0.11923    0.08194    0.54343   1.00
C4       0.25281    0.75117    0.52084   1.00
C4       0.25255    0.75049    0.47912   1.00
C3       0.28690    0.74529    0.54364   1.00
C3       0.28553    0.74037    0.45616   1.00
C3       0.21704    0.75747    0.54123   1.00
C3       0.21756    0.76053    0.45886   1.00
C2       0.25057    0.75105    0.60512   1.00
C2       0.24943    0.74895    0.39488   1.00
C3       0.28581    0.74500    0.58462   1.00
C3       0.28414    0.73996    0.41519   1.00
C3       0.21667    0.75781    0.58258   1.00
C3       0.21631    0.75832    0.41762   1.00
H1       0.31355    0.74117    0.53115   1.00
H1       0.31146    0.73275    0.46852   1.00
C5       0.18189    0.76357    0.52020   1.00
C5       0.18392    0.77238    0.47980   1.00
H1       0.31134    0.74031    0.59955   1.00
H1       0.30899    0.73274    0.40010   1.00
H1       0.19100    0.76344    0.59680   1.00
H1       0.19038    0.76317    0.40368   1.00
O3       0.14668    0.76312    0.53961   1.00
O3       0.15261    0.78948    0.46099   1.00
Si1      0.12170    0.72264    0.54247   1.00
Si1      0.15353    0.83638    0.45279   1.00
C6       0.08587    0.73957    0.57538   1.00
C6       0.10159    0.71365    0.49598   1.00
C6       0.14855    0.68351    0.56253   1.00
C6       0.19551    0.86283    0.46693   1.00
C6       0.14777    0.83942    0.40198   1.00
C6       0.11164    0.85649    0.47477   1.00
C6       0.10145    0.76224    0.61194   1.00
H2       0.07045    0.76131    0.55791   1.00
C6       0.05344    0.71149    0.59147   1.00
H2       0.10033    0.74295    0.48358   1.00
C6       0.12572    0.68867    0.46634   1.00
C6       0.05899    0.69739    0.49336   1.00
H2       0.16171    0.69692    0.58831   1.00
C6       0.12487    0.64746    0.57772   1.00
C6       0.18295    0.66499    0.53849   1.00
C6       0.20827    0.86106    0.51071   1.00
C6       0.23382    0.85921    0.44225   1.00
H2       0.18641    0.89297    0.46212   1.00
H2       0.17530    0.82827    0.39051   1.00
C6       0.11539    0.81279    0.38378   1.00
C6       0.14214    0.88095    0.38393   1.00
H2       0.08839    0.85078    0.45375   1.00
C6       0.09769    0.83685    0.51336   1.00
C6       0.11089    0.90154    0.48244   1.00
H2       0.11981    0.78688    0.60346   1.00
H2       0.11863    0.74320    0.63090   1.00
H2       0.07743    0.77425    0.62917   1.00
H2       0.02631    0.72765    0.59608   1.00
H2       0.04697    0.68748    0.57178   1.00
H2       0.06130    0.69883    0.61964   1.00
H2       0.11436    0.69221    0.43672   1.00
H2       0.15620    0.69750    0.46532   1.00
H2       0.12428    0.65767    0.47352   1.00
H2       0.03837    0.71626    0.50862   1.00
H2       0.04896    0.69596    0.46308   1.00
H2       0.05713    0.66798    0.50550   1.00
H2       0.10545    0.63612    0.55514   1.00
H2       0.14395    0.62363    0.58708   1.00
H2       0.10771    0.65488    0.60332   1.00
H2       0.17288    0.64188    0.51902   1.00
H2       0.19860    0.68589    0.52068   1.00
H2       0.20433    0.65192    0.55828   1.00
H2       0.22561    0.83515    0.51688   1.00
H2       0.22632    0.88632    0.51809   1.00
H2       0.18342    0.86133    0.53048   1.00
H2       0.25511    0.88123    0.45125   1.00
H2       0.24778    0.83092    0.44574   1.00
H2       0.22862    0.86401    0.41122   1.00
H2       0.11845    0.81165    0.35202   1.00
H2       0.11768    0.78279    0.39435   1.00
H2       0.08611    0.82343    0.39035   1.00
H2       0.16433    0.90136    0.39416   1.00
H2       0.14463    0.87969    0.35212   1.00
H2       0.11340    0.89286    0.39085   1.00
H2       0.11933    0.83927    0.53656   1.00
H2       0.07037    0.84952    0.52381   1.00
H2       0.09227    0.80605    0.50834   1.00
H2       0.08154    0.91119    0.49044   1.00
H2       0.13053    0.90965    0.50622   1.00
H2       0.11923    0.91806    0.45657   1.00
C4       0.25117    1.02084    0.25281   1.00
C4       0.25049    0.97912    0.25255   1.00
C3       0.24529    1.04364    0.28690   1.00
C3       0.24037    0.95616    0.28553   1.00
C3       0.25747    1.04123    0.21704   1.00
C3       0.26053    0.95886    0.21756   1.00
C2       0.25105    1.10512    0.25057   1.00
C2       0.24895    0.89488    0.24943   1.00
C3       0.24500    1.08462    0.28581   1.00
C3       0.23996    0.91519    0.28414   1.00
C3       0.25781    1.08258    0.21667   1.00
C3       0.25832    0.91762    0.21631   1.00
H1       0.24117    1.03115    0.31355   1.00
H1       0.23275    0.96852    0.31146   1.00
C5       0.26357    1.02020    0.18189   1.00
C5       0.27238    0.97980    0.18392   1.00
H1       0.24031    1.09955    0.31134   1.00
H1       0.23274    0.90010    0.30899   1.00
H1       0.26344    1.09680    0.19100   1.00
H1       0.26317    0.90368    0.19038   1.00
O3       0.26312    1.03961    0.14668   1.00
O3       0.28948    0.96099    0.15261   1.00
Si1      0.22264    1.04247    0.12170   1.00
Si1      0.33638    0.95279    0.15353   1.00
C6       0.23957    1.07538    0.08587   1.00
C6       0.21365    0.99598    0.10159   1.00
C6       0.18351    1.06253    0.14855   1.00
C6       0.36283    0.96693    0.19551   1.00
C6       0.33942    0.90198    0.14777   1.00
C6       0.35649    0.97477    0.11164   1.00
C6       0.26224    1.11194    0.10145   1.00
H2       0.26131    1.05791    0.07045   1.00
C6       0.21149    1.09147    0.05344   1.00
H2       0.24295    0.98358    0.10033   1.00
C6       0.18867    0.96634    0.12572   1.00
C6       0.19739    0.99336    0.05899   1.00
H2       0.19692    1.08831    0.16171   1.00
C6       0.14746    1.07772    0.12487   1.00
C6       0.16499    1.03849    0.18295   1.00
C6       0.36106    1.01071    0.20827   1.00
C6       0.35921    0.94225    0.23382   1.00
H2       0.39297    0.96212    0.18641   1.00
H2       0.32827    0.89051    0.17530   1.00
C6       0.31279    0.88378    0.11539   1.00
C6       0.38095    0.88393    0.14214   1.00
H2       0.35078    0.95375    0.08839   1.00
C6       0.33685    1.01336    0.09769   1.00
C6       0.40154    0.98244    0.11089   1.00
H2       0.28688    1.10346    0.11981   1.00
H2       0.24320    1.13090    0.11863   1.00
H2       0.27425    1.12917    0.07743   1.00
H2       0.22765    1.09608    0.02631   1.00
H2       0.18748    1.07178    0.04697   1.00
H2       0.19883    1.11964    0.06130   1.00
H2       0.19221    0.93672    0.11436   1.00
H2       0.19750    0.96532    0.15620   1.00
H2       0.15767    0.97352    0.12428   1.00
H2       0.21626    1.00862    0.03837   1.00
H2       0.19596    0.96308    0.04896   1.00
H2       0.16798    1.00550    0.05713   1.00
H2       0.13612    1.05514    0.10545   1.00
H2       0.12363    1.08708    0.14395   1.00
H2       0.15488    1.10332    0.10771   1.00
H2       0.14188    1.01902    0.17288   1.00
H2       0.18589    1.02068    0.19860   1.00
H2       0.15192    1.05828    0.20433   1.00
H2       0.33515    1.01688    0.22561   1.00
H2       0.38632    1.01809    0.22632   1.00
H2       0.36133    1.03048    0.18342   1.00
H2       0.38123    0.95125    0.25511   1.00
H2       0.33092    0.94574    0.24778   1.00
H2       0.36401    0.91122    0.22862   1.00
H2       0.31165    0.85202    0.11845   1.00
H2       0.28279    0.89435    0.11768   1.00
H2       0.32343    0.89035    0.08611   1.00
H2       0.40136    0.89416    0.16433   1.00
H2       0.37969    0.85212    0.14463   1.00
H2       0.39286    0.89085    0.11340   1.00
H2       0.33927    1.03656    0.11933   1.00
H2       0.34952    1.02381    0.07037   1.00
H2       0.30605    1.00834    0.09227   1.00
H2       0.41119    0.99044    0.08154   1.00
H2       0.40965    1.00622    0.13053   1.00
H2       0.41806    0.95657    0.11923   1.00
C4       -0.02084   0.75281    0.24883   1.00
C4       0.02088    0.75255    0.24951   1.00
C3       -0.04364   0.78690    0.25471   1.00
C3       0.04384    0.78553    0.25963   1.00
C3       -0.04123   0.71704    0.24253   1.00
C3       0.04114    0.71756    0.23947   1.00
C2       -0.10512   0.75057    0.24895   1.00
C2       0.10512    0.74943    0.25105   1.00
C3       -0.08462   0.78581    0.25500   1.00
C3       0.08481    0.78414    0.26004   1.00
C3       -0.08258   0.71667    0.24219   1.00
C3       0.08238    0.71631    0.24168   1.00
H1       -0.03115   0.81355    0.25883   1.00
H1       0.03148    0.81146    0.26725   1.00
C5       -0.02020   0.68189    0.23643   1.00
C5       0.02020    0.68392    0.22762   1.00
H1       -0.09955   0.81134    0.25969   1.00
H1       0.09990    0.80899    0.26726   1.00
H1       -0.09680   0.69100    0.23656   1.00
H1       0.09632    0.69038    0.23683   1.00
O3       -0.03961   0.64668    0.23688   1.00
O3       0.03901    0.65261    0.21052   1.00
Si1      -0.04247   0.62170    0.27736   1.00
Si1      0.04721    0.65353    0.16362   1.00
C6       -0.07538   0.58587    0.26043   1.00
C6       0.00402    0.60159    0.28635   1.00
C6       -0.06253   0.64855    0.31649   1.00
C6       0.03307    0.69551    0.13717   1.00
C6       0.09802    0.64777    0.16058   1.00
C6       0.02523    0.61164    0.14351   1.00
C6       -0.11194   0.60145    0.23776   1.00
H2       -0.05791   0.57045    0.23869   1.00
C6       -0.09147   0.55344    0.28851   1.00
H2       0.01642    0.60033    0.25705   1.00
C6       0.03366    0.62572    0.31133   1.00
C6       0.00664    0.55899    0.30261   1.00
H2       -0.08831   0.66171    0.30308   1.00
C6       -0.07772   0.62487    0.35254   1.00
C6       -0.03849   0.68295    0.33501   1.00
C6       -0.01071   0.70827    0.13894   1.00
C6       0.05775    0.73382    0.14079   1.00
H2       0.03788    0.68641    0.10703   1.00
H2       0.10949    0.67530    0.17173   1.00
C6       0.11622    0.61539    0.18721   1.00
C6       0.11607    0.64214    0.11905   1.00
H2       0.04625    0.58839    0.14922   1.00
C6       -0.01336   0.59769    0.16315   1.00
C6       0.01756    0.61089    0.09846   1.00
H2       -0.10346   0.61981    0.21312   1.00
H2       -0.13090   0.61863    0.25680   1.00
H2       -0.12917   0.57743    0.22575   1.00
H2       -0.09608   0.52631    0.27235   1.00
H2       -0.07178   0.54697    0.31252   1.00
H2       -0.11964   0.56130    0.30117   1.00
H2       0.06328    0.61436    0.30779   1.00
H2       0.03468    0.65620    0.30250   1.00
H2       0.02648    0.62428    0.34233   1.00
H2       -0.00862   0.53837    0.28374   1.00
H2       0.03692    0.54896    0.30404   1.00
H2       -0.00550   0.55713    0.33202   1.00
H2       -0.05514   0.60545    0.36388   1.00
H2       -0.08708   0.64395    0.37637   1.00
H2       -0.10332   0.60771    0.34512   1.00
H2       -0.01902   0.67288    0.35812   1.00
H2       -0.02068   0.69860    0.31411   1.00
H2       -0.05828   0.70433    0.34808   1.00
H2       -0.01688   0.72561    0.16485   1.00
H2       -0.01809   0.72632    0.11368   1.00
H2       -0.03048   0.68342    0.13867   1.00
H2       0.04875    0.75511    0.11877   1.00
H2       0.05426    0.74778    0.16908   1.00
H2       0.08878    0.72862    0.13599   1.00
H2       0.14798    0.61845    0.18835   1.00
H2       0.10565    0.61768    0.21721   1.00
H2       0.10965    0.58611    0.17657   1.00
H2       0.10584    0.66433    0.09864   1.00
H2       0.14788    0.64463    0.12031   1.00
H2       0.10915    0.61340    0.10714   1.00
H2       -0.03656   0.61933    0.16073   1.00
H2       -0.02381   0.57037    0.15048   1.00
H2       -0.00834   0.59227    0.19395   1.00
H2       0.00956    0.58154    0.08881   1.00
H2       -0.00622   0.63053    0.09035   1.00
H2       0.04343    0.61923    0.08194   1.00
C4       0.52084    0.75281    0.25117   1.00
C4       0.47912    0.75255    0.25049   1.00
C3       0.54364    0.78690    0.24529   1.00
C3       0.45616    0.78553    0.24037   1.00
C3       0.54123    0.71704    0.25747   1.00
C3       0.45886    0.71756    0.26053   1.00
C2       0.60512    0.75057    0.25105   1.00
C2       0.39488    0.74943    0.24895   1.00
C3       0.58462    0.78581    0.24500   1.00
C3       0.41519    0.78414    0.23996   1.00
C3       0.58258    0.71667    0.25781   1.00
C3       0.41762    0.71631    0.25832   1.00
H1       0.53115    0.81355    0.24117   1.00
H1       0.46852    0.81146    0.23275   1.00
C5       0.52020    0.68189    0.26357   1.00
C5       0.47980    0.68392    0.27238   1.00
H1       0.59955    0.81134    0.24031   1.00
H1       0.40010    0.80899    0.23274   1.00
H1       0.59680    0.69100    0.26344   1.00
H1       0.40368    0.69038    0.26317   1.00
O3       0.53961    0.64668    0.26312   1.00
O3       0.46099    0.65261    0.28948   1.00
Si1      0.54247    0.62170    0.22264   1.00
Si1      0.45279    0.65353    0.33638   1.00
C6       0.57538    0.58587    0.23957   1.00
C6       0.49598    0.60159    0.21365   1.00
C6       0.56253    0.64855    0.18351   1.00
C6       0.46693    0.69551    0.36283   1.00
C6       0.40198    0.64777    0.33942   1.00
C6       0.47477    0.61164    0.35649   1.00
C6       0.61194    0.60145    0.26224   1.00
H2       0.55791    0.57045    0.26131   1.00
C6       0.59147    0.55344    0.21149   1.00
H2       0.48358    0.60033    0.24295   1.00
C6       0.46634    0.62572    0.18867   1.00
C6       0.49336    0.55899    0.19739   1.00
H2       0.58831    0.66171    0.19692   1.00
C6       0.57772    0.62487    0.14746   1.00
C6       0.53849    0.68295    0.16499   1.00
C6       0.51071    0.70827    0.36106   1.00
C6       0.44225    0.73382    0.35921   1.00
H2       0.46212    0.68641    0.39297   1.00
H2       0.39051    0.67530    0.32827   1.00
C6       0.38378    0.61539    0.31279   1.00
C6       0.38393    0.64214    0.38095   1.00
H2       0.45375    0.58839    0.35078   1.00
C6       0.51336    0.59769    0.33685   1.00
C6       0.48244    0.61089    0.40154   1.00
H2       0.60346    0.61981    0.28688   1.00
H2       0.63090    0.61863    0.24320   1.00
H2       0.62917    0.57743    0.27425   1.00
H2       0.59608    0.52631    0.22765   1.00
H2       0.57178    0.54697    0.18748   1.00
H2       0.61964    0.56130    0.19883   1.00
H2       0.43672    0.61436    0.19221   1.00
H2       0.46532    0.65620    0.19750   1.00
H2       0.47352    0.62428    0.15767   1.00
H2       0.50862    0.53837    0.21626   1.00
H2       0.46308    0.54896    0.19596   1.00
H2       0.50550    0.55713    0.16798   1.00
H2       0.55514    0.60545    0.13612   1.00
H2       0.58708    0.64395    0.12363   1.00
H2       0.60332    0.60771    0.15488   1.00
H2       0.51902    0.67288    0.14188   1.00
H2       0.52068    0.69860    0.18589   1.00
H2       0.55828    0.70433    0.15192   1.00
H2       0.51688    0.72561    0.33515   1.00
H2       0.51809    0.72632    0.38632   1.00
H2       0.53048    0.68342    0.36133   1.00
H2       0.45125    0.75511    0.38123   1.00
H2       0.44574    0.74778    0.33092   1.00
H2       0.41122    0.72862    0.36401   1.00
H2       0.35202    0.61845    0.31165   1.00
H2       0.39435    0.61768    0.28279   1.00
H2       0.39035    0.58611    0.32343   1.00
H2       0.39416    0.66433    0.40136   1.00
H2       0.35212    0.64463    0.37969   1.00
H2       0.39085    0.61340    0.39286   1.00
H2       0.53656    0.61933    0.33927   1.00
H2       0.52381    0.57037    0.34952   1.00
H2       0.50834    0.59227    0.30605   1.00
H2       0.49044    0.58154    0.41119   1.00
H2       0.50622    0.63053    0.40965   1.00
H2       0.45657    0.61923    0.41806   1.00
C4       0.24883    0.47916    0.25281   1.00
C4       0.24951    0.52088    0.25255   1.00
C3       0.25471    0.45636    0.28690   1.00
C3       0.25963    0.54384    0.28553   1.00
C3       0.24253    0.45877    0.21704   1.00
C3       0.23947    0.54114    0.21756   1.00
C2       0.24895    0.39488    0.25057   1.00
C2       0.25105    0.60512    0.24943   1.00
C3       0.25500    0.41538    0.28581   1.00
C3       0.26004    0.58481    0.28414   1.00
C3       0.24219    0.41742    0.21667   1.00
C3       0.24168    0.58238    0.21631   1.00
H1       0.25883    0.46885    0.31355   1.00
H1       0.26725    0.53148    0.31146   1.00
C5       0.23643    0.47980    0.18189   1.00
C5       0.22762    0.52020    0.18392   1.00
H1       0.25969    0.40045    0.31134   1.00
H1       0.26726    0.59990    0.30899   1.00
H1       0.23656    0.40320    0.19100   1.00
H1       0.23683    0.59632    0.19038   1.00
O3       0.23688    0.46039    0.14668   1.00
O3       0.21052    0.53901    0.15261   1.00
Si1      0.27736    0.45753    0.12170   1.00
Si1      0.16362    0.54721    0.15353   1.00
C6       0.26043    0.42462    0.08587   1.00
C6       0.28635    0.50402    0.10159   1.00
C6       0.31649    0.43747    0.14855   1.00
C6       0.13717    0.53307    0.19551   1.00
C6       0.16058    0.59802    0.14777   1.00
C6       0.14351    0.52523    0.11164   1.00
C6       0.23776    0.38806    0.10145   1.00
H2       0.23869    0.44209    0.07045   1.00
C6       0.28851    0.40853    0.05344   1.00
H2       0.25705    0.51642    0.10033   1.00
C6       0.31133    0.53366    0.12572   1.00
C6       0.30261    0.50664    0.05899   1.00
H2       0.30308    0.41169    0.16171   1.00
C6       0.35254    0.42228    0.12487   1.00
C6       0.33501    0.46151    0.18295   1.00
C6       0.13894    0.48929    0.20827   1.00
C6       0.14079    0.55775    0.23382   1.00
H2       0.10703    0.53788    0.18641   1.00
H2       0.17173    0.60949    0.17530   1.00
C6       0.18721    0.61622    0.11539   1.00
C6       0.11905    0.61607    0.14214   1.00
H2       0.14922    0.54625    0.08839   1.00
C6       0.16315    0.48664    0.09769   1.00
C6       0.09846    0.51756    0.11089   1.00
H2       0.21312    0.39654    0.11981   1.00
H2       0.25680    0.36910    0.11863   1.00
H2       0.22575    0.37083    0.07743   1.00
H2       0.27235    0.40392    0.02631   1.00
H2       0.31252    0.42822    0.04697   1.00
H2       0.30117    0.38036    0.06130   1.00
H2       0.30779    0.56328    0.11436   1.00
H2       0.30250    0.53468    0.15620   1.00
H2       0.34233    0.52648    0.12428   1.00
H2       0.28374    0.49138    0.03837   1.00
H2       0.30404    0.53692    0.04896   1.00
H2       0.33202    0.49450    0.05713   1.00
H2       0.36388    0.44486    0.10545   1.00
H2       0.37637    0.41292    0.14395   1.00
H2       0.34512    0.39668    0.10771   1.00
H2       0.35812    0.48098    0.17288   1.00
H2       0.31411    0.47932    0.19860   1.00
H2       0.34808    0.44172    0.20433   1.00
H2       0.16485    0.48312    0.22561   1.00
H2       0.11368    0.48191    0.22632   1.00
H2       0.13867    0.46952    0.18342   1.00
H2       0.11877    0.54875    0.25511   1.00
H2       0.16908    0.55426    0.24778   1.00
H2       0.13599    0.58878    0.22862   1.00
H2       0.18835    0.64798    0.11845   1.00
H2       0.21721    0.60565    0.11768   1.00
H2       0.17657    0.60965    0.08611   1.00
H2       0.09864    0.60584    0.16433   1.00
H2       0.12031    0.64788    0.14463   1.00
H2       0.10714    0.60915    0.11340   1.00
H2       0.16073    0.46344    0.11933   1.00
H2       0.15048    0.47619    0.07037   1.00
H2       0.19395    0.49166    0.09227   1.00
H2       0.08881    0.50956    0.08154   1.00
H2       0.09035    0.49378    0.13053   1.00
H2       0.08194    0.54343    0.11923   1.00
C4       0.25281    0.74883    -0.02084   1.00
C4       0.25255    0.74951    0.02088   1.00
C3       0.28690    0.75471    -0.04364   1.00
C3       0.28553    0.75963    0.04384   1.00
C3       0.21704    0.74253    -0.04123   1.00
C3       0.21756    0.73947    0.04114   1.00
C2       0.25057    0.74895    -0.10512   1.00
C2       0.24943    0.75105    0.10512   1.00
C3       0.28581    0.75500    -0.08462   1.00
C3       0.28414    0.76004    0.08481   1.00
C3       0.21667    0.74219    -0.08258   1.00
C3       0.21631    0.74168    0.08238   1.00
H1       0.31355    0.75883    -0.03115   1.00
H1       0.31146    0.76725    0.03148   1.00
C5       0.18189    0.73643    -0.02020   1.00
C5       0.18392    0.72762    0.02020   1.00
H1       0.31134    0.75969    -0.09955   1.00
H1       0.30899    0.76726    0.09990   1.00
H1       0.19100    0.73656    -0.09680   1.00
H1       0.19038    0.73683    0.09632   1.00
O3       0.14668    0.73688    -0.03961   1.00
O3       0.15261    0.71052    0.03901   1.00
Si1      0.12170    0.77736    -0.04247   1.00
Si1      0.15353    0.66362    0.04721   1.00
C6       0.08587    0.76043    -0.07538   1.00
C6       0.10159    0.78635    0.00402   1.00
C6       0.14855    0.81649    -0.06253   1.00
C6       0.19551    0.63717    0.03307   1.00
C6       0.14777    0.66058    0.09802   1.00
C6       0.11164    0.64351    0.02523   1.00
C6       0.10145    0.73776    -0.11194   1.00
H2       0.07045    0.73869    -0.05791   1.00
C6       0.05344    0.78851    -0.09147   1.00
H2       0.10033    0.75705    0.01642   1.00
C6       0.12572    0.81133    0.03366   1.00
C6       0.05899    0.80261    0.00664   1.00
H2       0.16171    0.80308    -0.08831   1.00
C6       0.12487    0.85254    -0.07772   1.00
C6       0.18295    0.83501    -0.03849   1.00
C6       0.20827    0.63894    -0.01071   1.00
C6       0.23382    0.64079    0.05775   1.00
H2       0.18641    0.60703    0.03788   1.00
H2       0.17530    0.67173    0.10949   1.00
C6       0.11539    0.68721    0.11622   1.00
C6       0.14214    0.61905    0.11607   1.00
H2       0.08839    0.64922    0.04625   1.00
C6       0.09769    0.66315    -0.01336   1.00
C6       0.11089    0.59846    0.01756   1.00
H2       0.11981    0.71312    -0.10346   1.00
H2       0.11863    0.75680    -0.13090   1.00
H2       0.07743    0.72575    -0.12917   1.00
H2       0.02631    0.77235    -0.09608   1.00
H2       0.04697    0.81252    -0.07178   1.00
H2       0.06130    0.80117    -0.11964   1.00
H2       0.11436    0.80779    0.06328   1.00
H2       0.15620    0.80250    0.03468   1.00
H2       0.12428    0.84233    0.02648   1.00
H2       0.03837    0.78374    -0.00862   1.00
H2       0.04896    0.80404    0.03692   1.00
H2       0.05713    0.83202    -0.00550   1.00
H2       0.10545    0.86388    -0.05514   1.00
H2       0.14395    0.87637    -0.08708   1.00
H2       0.10771    0.84512    -0.10332   1.00
H2       0.17288    0.85812    -0.01902   1.00
H2       0.19860    0.81411    -0.02068   1.00
H2       0.20433    0.84808    -0.05828   1.00
H2       0.22561    0.66485    -0.01688   1.00
H2       0.22632    0.61368    -0.01809   1.00
H2       0.18342    0.63867    -0.03048   1.00
H2       0.25511    0.61877    0.04875   1.00
H2       0.24778    0.66908    0.05426   1.00
H2       0.22862    0.63599    0.08878   1.00
H2       0.11845    0.68835    0.14798   1.00
H2       0.11768    0.71721    0.10565   1.00
H2       0.08611    0.67657    0.10965   1.00
H2       0.16433    0.59864    0.10584   1.00
H2       0.14463    0.62031    0.14788   1.00
H2       0.11340    0.60714    0.10915   1.00
H2       0.11933    0.66073    -0.03656   1.00
H2       0.07037    0.65048    -0.02381   1.00
H2       0.09227    0.69395    -0.00834   1.00
H2       0.08154    0.58881    0.00956   1.00
H2       0.13053    0.59035    -0.00622   1.00
H2       0.11923    0.58194    0.04343   1.00
C4       0.75281    0.25117    0.52084   1.00
C4       0.75255    0.25049    0.47912   1.00
C3       0.78690    0.24529    0.54364   1.00
C3       0.78553    0.24037    0.45616   1.00
C3       0.71704    0.25747    0.54123   1.00
C3       0.71756    0.26053    0.45886   1.00
C2       0.75057    0.25105    0.60512   1.00
C2       0.74943    0.24895    0.39488   1.00
C3       0.78581    0.24500    0.58462   1.00
C3       0.78414    0.23996    0.41519   1.00
C3       0.71667    0.25781    0.58258   1.00
C3       0.71631    0.25832    0.41762   1.00
H1       0.81355    0.24117    0.53115   1.00
H1       0.81146    0.23275    0.46852   1.00
C5       0.68189    0.26357    0.52020   1.00
C5       0.68392    0.27238    0.47980   1.00
H1       0.81134    0.24031    0.59955   1.00
H1       0.80899    0.23274    0.40010   1.00
H1       0.69100    0.26344    0.59680   1.00
H1       0.69038    0.26317    0.40368   1.00
O3       0.64668    0.26312    0.53961   1.00
O3       0.65261    0.28948    0.46099   1.00
Si1      0.62170    0.22264    0.54247   1.00
Si1      0.65353    0.33638    0.45279   1.00
C6       0.58587    0.23957    0.57538   1.00
C6       0.60159    0.21365    0.49598   1.00
C6       0.64855    0.18351    0.56253   1.00
C6       0.69551    0.36283    0.46693   1.00
C6       0.64777    0.33942    0.40198   1.00
C6       0.61164    0.35649    0.47477   1.00
C6       0.60145    0.26224    0.61194   1.00
H2       0.57045    0.26131    0.55791   1.00
C6       0.55344    0.21149    0.59147   1.00
H2       0.60033    0.24295    0.48358   1.00
C6       0.62572    0.18867    0.46634   1.00
C6       0.55899    0.19739    0.49336   1.00
H2       0.66171    0.19692    0.58831   1.00
C6       0.62487    0.14746    0.57772   1.00
C6       0.68295    0.16499    0.53849   1.00
C6       0.70827    0.36106    0.51071   1.00
C6       0.73382    0.35921    0.44225   1.00
H2       0.68641    0.39297    0.46212   1.00
H2       0.67530    0.32827    0.39051   1.00
C6       0.61539    0.31279    0.38378   1.00
C6       0.64214    0.38095    0.38393   1.00
H2       0.58839    0.35078    0.45375   1.00
C6       0.59769    0.33685    0.51336   1.00
C6       0.61089    0.40154    0.48244   1.00
H2       0.61981    0.28688    0.60346   1.00
H2       0.61863    0.24320    0.63090   1.00
H2       0.57743    0.27425    0.62917   1.00
H2       0.52631    0.22765    0.59608   1.00
H2       0.54697    0.18748    0.57178   1.00
H2       0.56130    0.19883    0.61964   1.00
H2       0.61436    0.19221    0.43672   1.00
H2       0.65620    0.19750    0.46532   1.00
H2       0.62428    0.15767    0.47352   1.00
H2       0.53837    0.21626    0.50862   1.00
H2       0.54896    0.19596    0.46308   1.00
H2       0.55713    0.16798    0.50550   1.00
H2       0.60545    0.13612    0.55514   1.00
H2       0.64395    0.12363    0.58708   1.00
H2       0.60771    0.15488    0.60332   1.00
H2       0.67288    0.14188    0.51902   1.00
H2       0.69860    0.18589    0.52068   1.00
H2       0.70433    0.15192    0.55828   1.00
H2       0.72561    0.33515    0.51688   1.00
H2       0.72632    0.38632    0.51809   1.00
H2       0.68342    0.36133    0.53048   1.00
H2       0.75511    0.38123    0.45125   1.00
H2       0.74778    0.33092    0.44574   1.00
H2       0.72862    0.36401    0.41122   1.00
H2       0.61845    0.31165    0.35202   1.00
H2       0.61768    0.28279    0.39435   1.00
H2       0.58611    0.32343    0.39035   1.00
H2       0.66433    0.40136    0.39416   1.00
H2       0.64463    0.37969    0.35212   1.00
H2       0.61340    0.39286    0.39085   1.00
H2       0.61933    0.33927    0.53656   1.00
H2       0.57037    0.34952    0.52381   1.00
H2       0.59227    0.30605    0.50834   1.00
H2       0.58154    0.41119    0.49044   1.00
H2       0.63053    0.40965    0.50622   1.00
H2       0.61923    0.41806    0.45657   1.00
C4       0.75117    0.52084    0.25281   1.00
C4       0.75049    0.47912    0.25255   1.00
C3       0.74529    0.54364    0.28690   1.00
C3       0.74037    0.45616    0.28553   1.00
C3       0.75747    0.54123    0.21704   1.00
C3       0.76053    0.45886    0.21756   1.00
C2       0.75105    0.60512    0.25057   1.00
C2       0.74895    0.39488    0.24943   1.00
C3       0.74500    0.58462    0.28581   1.00
C3       0.73996    0.41519    0.28414   1.00
C3       0.75781    0.58258    0.21667   1.00
C3       0.75832    0.41762    0.21631   1.00
H1       0.74117    0.53115    0.31355   1.00
H1       0.73275    0.46852    0.31146   1.00
C5       0.76357    0.52020    0.18189   1.00
C5       0.77238    0.47980    0.18392   1.00
H1       0.74031    0.59955    0.31134   1.00
H1       0.73274    0.40010    0.30899   1.00
H1       0.76344    0.59680    0.19100   1.00
H1       0.76317    0.40368    0.19038   1.00
O3       0.76312    0.53961    0.14668   1.00
O3       0.78948    0.46099    0.15261   1.00
Si1      0.72264    0.54247    0.12170   1.00
Si1      0.83638    0.45279    0.15353   1.00
C6       0.73957    0.57538    0.08587   1.00
C6       0.71365    0.49598    0.10159   1.00
C6       0.68351    0.56253    0.14855   1.00
C6       0.86283    0.46693    0.19551   1.00
C6       0.83942    0.40198    0.14777   1.00
C6       0.85649    0.47477    0.11164   1.00
C6       0.76224    0.61194    0.10145   1.00
H2       0.76131    0.55791    0.07045   1.00
C6       0.71149    0.59147    0.05344   1.00
H2       0.74295    0.48358    0.10033   1.00
C6       0.68867    0.46634    0.12572   1.00
C6       0.69739    0.49336    0.05899   1.00
H2       0.69692    0.58831    0.16171   1.00
C6       0.64746    0.57772    0.12487   1.00
C6       0.66499    0.53849    0.18295   1.00
C6       0.86106    0.51071    0.20827   1.00
C6       0.85921    0.44225    0.23382   1.00
H2       0.89297    0.46212    0.18641   1.00
H2       0.82827    0.39051    0.17530   1.00
C6       0.81279    0.38378    0.11539   1.00
C6       0.88095    0.38393    0.14214   1.00
H2       0.85078    0.45375    0.08839   1.00
C6       0.83685    0.51336    0.09769   1.00
C6       0.90154    0.48244    0.11089   1.00
H2       0.78688    0.60346    0.11981   1.00
H2       0.74320    0.63090    0.11863   1.00
H2       0.77425    0.62917    0.07743   1.00
H2       0.72765    0.59608    0.02631   1.00
H2       0.68748    0.57178    0.04697   1.00
H2       0.69883    0.61964    0.06130   1.00
H2       0.69221    0.43672    0.11436   1.00
H2       0.69750    0.46532    0.15620   1.00
H2       0.65767    0.47352    0.12428   1.00
H2       0.71626    0.50862    0.03837   1.00
H2       0.69596    0.46308    0.04896   1.00
H2       0.66798    0.50550    0.05713   1.00
H2       0.63612    0.55514    0.10545   1.00
H2       0.62363    0.58708    0.14395   1.00
H2       0.65488    0.60332    0.10771   1.00
H2       0.64188    0.51902    0.17288   1.00
H2       0.68589    0.52068    0.19860   1.00
H2       0.65192    0.55828    0.20433   1.00
H2       0.83515    0.51688    0.22561   1.00
H2       0.88632    0.51809    0.22632   1.00
H2       0.86133    0.53048    0.18342   1.00
H2       0.88123    0.45125    0.25511   1.00
H2       0.83092    0.44574    0.24778   1.00
H2       0.86401    0.41122    0.22862   1.00
H2       0.81165    0.35202    0.11845   1.00
H2       0.78279    0.39435    0.11768   1.00
H2       0.82343    0.39035    0.08611   1.00
H2       0.90136    0.39416    0.16433   1.00
H2       0.87969    0.35212    0.14463   1.00
H2       0.89286    0.39085    0.11340   1.00
H2       0.83927    0.53656    0.11933   1.00
H2       0.84952    0.52381    0.07037   1.00
H2       0.80605    0.50834    0.09227   1.00
H2       0.91119    0.49044    0.08154   1.00
H2       0.90965    0.50622    0.13053   1.00
H2       0.91806    0.45657    0.11923   1.00
C4       0.47916    0.25281    0.24883   1.00
C4       0.52088    0.25255    0.24951   1.00
C3       0.45636    0.28690    0.25471   1.00
C3       0.54384    0.28553    0.25963   1.00
C3       0.45877    0.21704    0.24253   1.00
C3       0.54114    0.21756    0.23947   1.00
C2       0.39488    0.25057    0.24895   1.00
C2       0.60512    0.24943    0.25105   1.00
C3       0.41538    0.28581    0.25500   1.00
C3       0.58481    0.28414    0.26004   1.00
C3       0.41742    0.21667    0.24219   1.00
C3       0.58238    0.21631    0.24168   1.00
H1       0.46885    0.31355    0.25883   1.00
H1       0.53148    0.31146    0.26725   1.00
C5       0.47980    0.18189    0.23643   1.00
C5       0.52020    0.18392    0.22762   1.00
H1       0.40045    0.31134    0.25969   1.00
H1       0.59990    0.30899    0.26726   1.00
H1       0.40320    0.19100    0.23656   1.00
H1       0.59632    0.19038    0.23683   1.00
O3       0.46039    0.14668    0.23688   1.00
O3       0.53901    0.15261    0.21052   1.00
Si1      0.45753    0.12170    0.27736   1.00
Si1      0.54721    0.15353    0.16362   1.00
C6       0.42462    0.08587    0.26043   1.00
C6       0.50402    0.10159    0.28635   1.00
C6       0.43747    0.14855    0.31649   1.00
C6       0.53307    0.19551    0.13717   1.00
C6       0.59802    0.14777    0.16058   1.00
C6       0.52523    0.11164    0.14351   1.00
C6       0.38806    0.10145    0.23776   1.00
H2       0.44209    0.07045    0.23869   1.00
C6       0.40853    0.05344    0.28851   1.00
H2       0.51642    0.10033    0.25705   1.00
C6       0.53366    0.12572    0.31133   1.00
C6       0.50664    0.05899    0.30261   1.00
H2       0.41169    0.16171    0.30308   1.00
C6       0.42228    0.12487    0.35254   1.00
C6       0.46151    0.18295    0.33501   1.00
C6       0.48929    0.20827    0.13894   1.00
C6       0.55775    0.23382    0.14079   1.00
H2       0.53788    0.18641    0.10703   1.00
H2       0.60949    0.17530    0.17173   1.00
C6       0.61622    0.11539    0.18721   1.00
C6       0.61607    0.14214    0.11905   1.00
H2       0.54625    0.08839    0.14922   1.00
C6       0.48664    0.09769    0.16315   1.00
C6       0.51756    0.11089    0.09846   1.00
H2       0.39654    0.11981    0.21312   1.00
H2       0.36910    0.11863    0.25680   1.00
H2       0.37083    0.07743    0.22575   1.00
H2       0.40392    0.02631    0.27235   1.00
H2       0.42822    0.04697    0.31252   1.00
H2       0.38036    0.06130    0.30117   1.00
H2       0.56328    0.11436    0.30779   1.00
H2       0.53468    0.15620    0.30250   1.00
H2       0.52648    0.12428    0.34233   1.00
H2       0.49138    0.03837    0.28374   1.00
H2       0.53692    0.04896    0.30404   1.00
H2       0.49450    0.05713    0.33202   1.00
H2       0.44486    0.10545    0.36388   1.00
H2       0.41292    0.14395    0.37637   1.00
H2       0.39668    0.10771    0.34512   1.00
H2       0.48098    0.17288    0.35812   1.00
H2       0.47932    0.19860    0.31411   1.00
H2       0.44172    0.20433    0.34808   1.00
H2       0.48312    0.22561    0.16485   1.00
H2       0.48191    0.22632    0.11368   1.00
H2       0.46952    0.18342    0.13867   1.00
H2       0.54875    0.25511    0.11877   1.00
H2       0.55426    0.24778    0.16908   1.00
H2       0.58878    0.22862    0.13599   1.00
H2       0.64798    0.11845    0.18835   1.00
H2       0.60565    0.11768    0.21721   1.00
H2       0.60965    0.08611    0.17657   1.00
H2       0.60584    0.16433    0.09864   1.00
H2       0.64788    0.14463    0.12031   1.00
H2       0.60915    0.11340    0.10714   1.00
H2       0.46344    0.11933    0.16073   1.00
H2       0.47619    0.07037    0.15048   1.00
H2       0.49166    0.09227    0.19395   1.00
H2       0.50956    0.08154    0.08881   1.00
H2       0.49378    0.13053    0.09035   1.00
H2       0.54343    0.11923    0.08194   1.00
C4       1.02084    0.25281    0.25117   1.00
C4       0.97912    0.25255    0.25049   1.00
C3       1.04364    0.28690    0.24529   1.00
C3       0.95616    0.28553    0.24037   1.00
C3       1.04123    0.21704    0.25747   1.00
C3       0.95886    0.21756    0.26053   1.00
C2       1.10512    0.25057    0.25105   1.00
C2       0.89488    0.24943    0.24895   1.00
C3       1.08462    0.28581    0.24500   1.00
C3       0.91519    0.28414    0.23996   1.00
C3       1.08258    0.21667    0.25781   1.00
C3       0.91762    0.21631    0.25832   1.00
H1       1.03115    0.31355    0.24117   1.00
H1       0.96852    0.31146    0.23275   1.00
C5       1.02020    0.18189    0.26357   1.00
C5       0.97980    0.18392    0.27238   1.00
H1       1.09955    0.31134    0.24031   1.00
H1       0.90010    0.30899    0.23274   1.00
H1       1.09680    0.19100    0.26344   1.00
H1       0.90368    0.19038    0.26317   1.00
O3       1.03961    0.14668    0.26312   1.00
O3       0.96099    0.15261    0.28948   1.00
Si1      1.04247    0.12170    0.22264   1.00
Si1      0.95279    0.15353    0.33638   1.00
C6       1.07538    0.08587    0.23957   1.00
C6       0.99598    0.10159    0.21365   1.00
C6       1.06253    0.14855    0.18351   1.00
C6       0.96693    0.19551    0.36283   1.00
C6       0.90198    0.14777    0.33942   1.00
C6       0.97477    0.11164    0.35649   1.00
C6       1.11194    0.10145    0.26224   1.00
H2       1.05791    0.07045    0.26131   1.00
C6       1.09147    0.05344    0.21149   1.00
H2       0.98358    0.10033    0.24295   1.00
C6       0.96634    0.12572    0.18867   1.00
C6       0.99336    0.05899    0.19739   1.00
H2       1.08831    0.16171    0.19692   1.00
C6       1.07772    0.12487    0.14746   1.00
C6       1.03849    0.18295    0.16499   1.00
C6       1.01071    0.20827    0.36106   1.00
C6       0.94225    0.23382    0.35921   1.00
H2       0.96212    0.18641    0.39297   1.00
H2       0.89051    0.17530    0.32827   1.00
C6       0.88378    0.11539    0.31279   1.00
C6       0.88393    0.14214    0.38095   1.00
H2       0.95375    0.08839    0.35078   1.00
C6       1.01336    0.09769    0.33685   1.00
C6       0.98244    0.11089    0.40154   1.00
H2       1.10346    0.11981    0.28688   1.00
H2       1.13090    0.11863    0.24320   1.00
H2       1.12917    0.07743    0.27425   1.00
H2       1.09608    0.02631    0.22765   1.00
H2       1.07178    0.04697    0.18748   1.00
H2       1.11964    0.06130    0.19883   1.00
H2       0.93672    0.11436    0.19221   1.00
H2       0.96532    0.15620    0.19750   1.00
H2       0.97352    0.12428    0.15767   1.00
H2       1.00862    0.03837    0.21626   1.00
H2       0.96308    0.04896    0.19596   1.00
H2       1.00550    0.05713    0.16798   1.00
H2       1.05514    0.10545    0.13612   1.00
H2       1.08708    0.14395    0.12363   1.00
H2       1.10332    0.10771    0.15488   1.00
H2       1.01902    0.17288    0.14188   1.00
H2       1.02068    0.19860    0.18589   1.00
H2       1.05828    0.20433    0.15192   1.00
H2       1.01688    0.22561    0.33515   1.00
H2       1.01809    0.22632    0.38632   1.00
H2       1.03048    0.18342    0.36133   1.00
H2       0.95125    0.25511    0.38123   1.00
H2       0.94574    0.24778    0.33092   1.00
H2       0.91122    0.22862    0.36401   1.00
H2       0.85202    0.11845    0.31165   1.00
H2       0.89435    0.11768    0.28279   1.00
H2       0.89035    0.08611    0.32343   1.00
H2       0.89416    0.16433    0.40136   1.00
H2       0.85212    0.14463    0.37969   1.00
H2       0.89085    0.11340    0.39286   1.00
H2       1.03656    0.11933    0.33927   1.00
H2       1.02381    0.07037    0.34952   1.00
H2       1.00834    0.09227    0.30605   1.00
H2       0.99044    0.08154    0.41119   1.00
H2       1.00622    0.13053    0.40965   1.00
H2       0.95657    0.11923    0.41806   1.00
C4       0.74883    -0.02084   0.25281   1.00
C4       0.74951    0.02088    0.25255   1.00
C3       0.75471    -0.04364   0.28690   1.00
C3       0.75963    0.04384    0.28553   1.00
C3       0.74253    -0.04123   0.21704   1.00
C3       0.73947    0.04114    0.21756   1.00
C2       0.74895    -0.10512   0.25057   1.00
C2       0.75105    0.10512    0.24943   1.00
C3       0.75500    -0.08462   0.28581   1.00
C3       0.76004    0.08481    0.28414   1.00
C3       0.74219    -0.08258   0.21667   1.00
C3       0.74168    0.08238    0.21631   1.00
H1       0.75883    -0.03115   0.31355   1.00
H1       0.76725    0.03148    0.31146   1.00
C5       0.73643    -0.02020   0.18189   1.00
C5       0.72762    0.02020    0.18392   1.00
H1       0.75969    -0.09955   0.31134   1.00
H1       0.76726    0.09990    0.30899   1.00
H1       0.73656    -0.09680   0.19100   1.00
H1       0.73683    0.09632    0.19038   1.00
O3       0.73688    -0.03961   0.14668   1.00
O3       0.71052    0.03901    0.15261   1.00
Si1      0.77736    -0.04247   0.12170   1.00
Si1      0.66362    0.04721    0.15353   1.00
C6       0.76043    -0.07538   0.08587   1.00
C6       0.78635    0.00402    0.10159   1.00
C6       0.81649    -0.06253   0.14855   1.00
C6       0.63717    0.03307    0.19551   1.00
C6       0.66058    0.09802    0.14777   1.00
C6       0.64351    0.02523    0.11164   1.00
C6       0.73776    -0.11194   0.10145   1.00
H2       0.73869    -0.05791   0.07045   1.00
C6       0.78851    -0.09147   0.05344   1.00
H2       0.75705    0.01642    0.10033   1.00
C6       0.81133    0.03366    0.12572   1.00
C6       0.80261    0.00664    0.05899   1.00
H2       0.80308    -0.08831   0.16171   1.00
C6       0.85254    -0.07772   0.12487   1.00
C6       0.83501    -0.03849   0.18295   1.00
C6       0.63894    -0.01071   0.20827   1.00
C6       0.64079    0.05775    0.23382   1.00
H2       0.60703    0.03788    0.18641   1.00
H2       0.67173    0.10949    0.17530   1.00
C6       0.68721    0.11622    0.11539   1.00
C6       0.61905    0.11607    0.14214   1.00
H2       0.64922    0.04625    0.08839   1.00
C6       0.66315    -0.01336   0.09769   1.00
C6       0.59846    0.01756    0.11089   1.00
H2       0.71312    -0.10346   0.11981   1.00
H2       0.75680    -0.13090   0.11863   1.00
H2       0.72575    -0.12917   0.07743   1.00
H2       0.77235    -0.09608   0.02631   1.00
H2       0.81252    -0.07178   0.04697   1.00
H2       0.80117    -0.11964   0.06130   1.00
H2       0.80779    0.06328    0.11436   1.00
H2       0.80250    0.03468    0.15620   1.00
H2       0.84233    0.02648    0.12428   1.00
H2       0.78374    -0.00862   0.03837   1.00
H2       0.80404    0.03692    0.04896   1.00
H2       0.83202    -0.00550   0.05713   1.00
H2       0.86388    -0.05514   0.10545   1.00
H2       0.87637    -0.08708   0.14395   1.00
H2       0.84512    -0.10332   0.10771   1.00
H2       0.85812    -0.01902   0.17288   1.00
H2       0.81411    -0.02068   0.19860   1.00
H2       0.84808    -0.05828   0.20433   1.00
H2       0.66485    -0.01688   0.22561   1.00
H2       0.61368    -0.01809   0.22632   1.00
H2       0.63867    -0.03048   0.18342   1.00
H2       0.61877    0.04875    0.25511   1.00
H2       0.66908    0.05426    0.24778   1.00
H2       0.63599    0.08878    0.22862   1.00
H2       0.68835    0.14798    0.11845   1.00
H2       0.71721    0.10565    0.11768   1.00
H2       0.67657    0.10965    0.08611   1.00
H2       0.59864    0.10584    0.16433   1.00
H2       0.62031    0.14788    0.14463   1.00
H2       0.60714    0.10915    0.11340   1.00
H2       0.66073    -0.03656   0.11933   1.00
H2       0.65048    -0.02381   0.07037   1.00
H2       0.69395    -0.00834   0.09227   1.00
H2       0.58881    0.00956    0.08154   1.00
H2       0.59035    -0.00622   0.13053   1.00
H2       0.58194    0.04343    0.11923   1.00
C4       0.75281    0.24883    -0.02084   1.00
C4       0.75255    0.24951    0.02088   1.00
C3       0.78690    0.25471    -0.04364   1.00
C3       0.78553    0.25963    0.04384   1.00
C3       0.71704    0.24253    -0.04123   1.00
C3       0.71756    0.23947    0.04114   1.00
C2       0.75057    0.24895    -0.10512   1.00
C2       0.74943    0.25105    0.10512   1.00
C3       0.78581    0.25500    -0.08462   1.00
C3       0.78414    0.26004    0.08481   1.00
C3       0.71667    0.24219    -0.08258   1.00
C3       0.71631    0.24168    0.08238   1.00
H1       0.81355    0.25883    -0.03115   1.00
H1       0.81146    0.26725    0.03148   1.00
C5       0.68189    0.23643    -0.02020   1.00
C5       0.68392    0.22762    0.02020   1.00
H1       0.81134    0.25969    -0.09955   1.00
H1       0.80899    0.26726    0.09990   1.00
H1       0.69100    0.23656    -0.09680   1.00
H1       0.69038    0.23683    0.09632   1.00
O3       0.64668    0.23688    -0.03961   1.00
O3       0.65261    0.21052    0.03901   1.00
Si1      0.62170    0.27736    -0.04247   1.00
Si1      0.65353    0.16362    0.04721   1.00
C6       0.58587    0.26043    -0.07538   1.00
C6       0.60159    0.28635    0.00402   1.00
C6       0.64855    0.31649    -0.06253   1.00
C6       0.69551    0.13717    0.03307   1.00
C6       0.64777    0.16058    0.09802   1.00
C6       0.61164    0.14351    0.02523   1.00
C6       0.60145    0.23776    -0.11194   1.00
H2       0.57045    0.23869    -0.05791   1.00
C6       0.55344    0.28851    -0.09147   1.00
H2       0.60033    0.25705    0.01642   1.00
C6       0.62572    0.31133    0.03366   1.00
C6       0.55899    0.30261    0.00664   1.00
H2       0.66171    0.30308    -0.08831   1.00
C6       0.62487    0.35254    -0.07772   1.00
C6       0.68295    0.33501    -0.03849   1.00
C6       0.70827    0.13894    -0.01071   1.00
C6       0.73382    0.14079    0.05775   1.00
H2       0.68641    0.10703    0.03788   1.00
H2       0.67530    0.17173    0.10949   1.00
C6       0.61539    0.18721    0.11622   1.00
C6       0.64214    0.11905    0.11607   1.00
H2       0.58839    0.14922    0.04625   1.00
C6       0.59769    0.16315    -0.01336   1.00
C6       0.61089    0.09846    0.01756   1.00
H2       0.61981    0.21312    -0.10346   1.00
H2       0.61863    0.25680    -0.13090   1.00
H2       0.57743    0.22575    -0.12917   1.00
H2       0.52631    0.27235    -0.09608   1.00
H2       0.54697    0.31252    -0.07178   1.00
H2       0.56130    0.30117    -0.11964   1.00
H2       0.61436    0.30779    0.06328   1.00
H2       0.65620    0.30250    0.03468   1.00
H2       0.62428    0.34233    0.02648   1.00
H2       0.53837    0.28374    -0.00862   1.00
H2       0.54896    0.30404    0.03692   1.00
H2       0.55713    0.33202    -0.00550   1.00
H2       0.60545    0.36388    -0.05514   1.00
H2       0.64395    0.37637    -0.08708   1.00
H2       0.60771    0.34512    -0.10332   1.00
H2       0.67288    0.35812    -0.01902   1.00
H2       0.69860    0.31411    -0.02068   1.00
H2       0.70433    0.34808    -0.05828   1.00
H2       0.72561    0.16485    -0.01688   1.00
H2       0.72632    0.11368    -0.01809   1.00
H2       0.68342    0.13867    -0.03048   1.00
H2       0.75511    0.11877    0.04875   1.00
H2       0.74778    0.16908    0.05426   1.00
H2       0.72862    0.13599    0.08878   1.00
H2       0.61845    0.18835    0.14798   1.00
H2       0.61768    0.21721    0.10565   1.00
H2       0.58611    0.17657    0.10965   1.00
H2       0.66433    0.09864    0.10584   1.00
H2       0.64463    0.12031    0.14788   1.00
H2       0.61340    0.10714    0.10915   1.00
H2       0.61933    0.16073    -0.03656   1.00
H2       0.57037    0.15048    -0.02381   1.00
H2       0.59227    0.19395    -0.00834   1.00
H2       0.58154    0.08881    0.00956   1.00
H2       0.63053    0.09035    -0.00622   1.00
H2       0.61923    0.08194    0.04343   1.00
C4       0.91781    0.91617    1.18584   1.00
C4       0.91755    0.91549    1.14412   1.00
C3       0.95190    0.91029    1.20864   1.00
C3       0.95053    0.90537    1.12116   1.00
C3       0.88204    0.92247    1.20623   1.00
C3       0.88256    0.92553    1.12386   1.00
C2       0.91557    0.91605    1.27012   1.00
C2       0.91443    0.91395    1.05988   1.00
C3       0.95081    0.91000    1.24962   1.00
C3       0.94914    0.90496    1.08019   1.00
C3       0.88167    0.92281    1.24758   1.00
C3       0.88131    0.92332    1.08262   1.00
H1       0.97855    0.90617    1.19615   1.00
H1       0.97646    0.89775    1.13352   1.00
C5       0.84689    0.92857    1.18520   1.00
C5       0.84892    0.93738    1.14480   1.00
H1       0.97634    0.90531    1.26455   1.00
H1       0.97399    0.89774    1.06510   1.00
H1       0.85600    0.92844    1.26180   1.00
H1       0.85538    0.92817    1.06868   1.00
O3       0.81168    0.92812    1.20461   1.00
O3       0.81761    0.95448    1.12599   1.00
Si1      0.78670    0.88764    1.20747   1.00
Si1      0.81853    1.00138    1.11779   1.00
C6       0.75087    0.90457    1.24038   1.00
C6       0.76659    0.87865    1.16098   1.00
C6       0.81355    0.84851    1.22753   1.00
C6       0.86051    1.02783    1.13193   1.00
C6       0.81277    1.00442    1.06698   1.00
C6       0.77664    1.02149    1.13977   1.00
C6       0.76645    0.92724    1.27694   1.00
H2       0.73545    0.92631    1.22291   1.00
C6       0.71844    0.87649    1.25647   1.00
H2       0.76533    0.90795    1.14858   1.00
C6       0.79072    0.85367    1.13134   1.00
C6       0.72399    0.86239    1.15836   1.00
H2       0.82671    0.86192    1.25331   1.00
C6       0.78987    0.81246    1.24272   1.00
C6       0.84795    0.82999    1.20349   1.00
C6       0.87327    1.02606    1.17571   1.00
C6       0.89882    1.02421    1.10725   1.00
H2       0.85141    1.05797    1.12712   1.00
H2       0.84030    0.99327    1.05551   1.00
C6       0.78039    0.97779    1.04878   1.00
C6       0.80714    1.04595    1.04893   1.00
H2       0.75339    1.01578    1.11875   1.00
C6       0.76269    1.00185    1.17836   1.00
C6       0.77589    1.06654    1.14744   1.00
H2       0.78481    0.95188    1.26846   1.00
H2       0.78363    0.90820    1.29590   1.00
H2       0.74243    0.93925    1.29417   1.00
H2       0.69131    0.89265    1.26108   1.00
H2       0.71197    0.85248    1.23678   1.00
H2       0.72630    0.86383    1.28464   1.00
H2       0.77936    0.85721    1.10172   1.00
H2       0.82120    0.86250    1.13032   1.00
H2       0.78928    0.82267    1.13852   1.00
H2       0.70337    0.88126    1.17362   1.00
H2       0.71396    0.86096    1.12808   1.00
H2       0.72213    0.83298    1.17050   1.00
H2       0.77045    0.80112    1.22014   1.00
H2       0.80895    0.78863    1.25208   1.00
H2       0.77271    0.81988    1.26832   1.00
H2       0.83788    0.80688    1.18402   1.00
H2       0.86360    0.85089    1.18568   1.00
H2       0.86933    0.81692    1.22328   1.00
H2       0.89061    1.00015    1.18188   1.00
H2       0.89132    1.05132    1.18309   1.00
H2       0.84842    1.02633    1.19548   1.00
H2       0.92011    1.04623    1.11625   1.00
H2       0.91278    0.99592    1.11074   1.00
H2       0.89362    1.02901    1.07622   1.00
H2       0.78345    0.97665    1.01702   1.00
H2       0.78268    0.94779    1.05935   1.00
H2       0.75111    0.98843    1.05535   1.00
H2       0.82933    1.06636    1.05916   1.00
H2       0.80963    1.04469    1.01712   1.00
H2       0.77840    1.05786    1.05585   1.00
H2       0.78433    1.00427    1.20156   1.00
H2       0.73537    1.01452    1.18881   1.00
H2       0.75727    0.97105    1.17334   1.00
H2       0.74654    1.07619    1.15544   1.00
H2       0.79553    1.07465    1.17122   1.00
H2       0.78423    1.08306    1.12157   1.00
C4       0.91617    1.18584    0.91781   1.00
C4       0.91549    1.14412    0.91755   1.00
C3       0.91029    1.20864    0.95190   1.00
C3       0.90537    1.12116    0.95053   1.00
C3       0.92247    1.20623    0.88204   1.00
C3       0.92553    1.12386    0.88256   1.00
C2       0.91605    1.27012    0.91557   1.00
C2       0.91395    1.05988    0.91443   1.00
C3       0.91000    1.24962    0.95081   1.00
C3       0.90496    1.08019    0.94914   1.00
C3       0.92281    1.24758    0.88167   1.00
C3       0.92332    1.08262    0.88131   1.00
H1       0.90617    1.19615    0.97855   1.00
H1       0.89775    1.13352    0.97646   1.00
C5       0.92857    1.18520    0.84689   1.00
C5       0.93738    1.14480    0.84892   1.00
H1       0.90531    1.26455    0.97634   1.00
H1       0.89774    1.06510    0.97399   1.00
H1       0.92844    1.26180    0.85600   1.00
H1       0.92817    1.06868    0.85538   1.00
O3       0.92812    1.20461    0.81168   1.00
O3       0.95448    1.12599    0.81761   1.00
Si1      0.88764    1.20747    0.78670   1.00
Si1      1.00138    1.11779    0.81853   1.00
C6       0.90457    1.24038    0.75087   1.00
C6       0.87865    1.16098    0.76659   1.00
C6       0.84851    1.22753    0.81355   1.00
C6       1.02783    1.13193    0.86051   1.00
C6       1.00442    1.06698    0.81277   1.00
C6       1.02149    1.13977    0.77664   1.00
C6       0.92724    1.27694    0.76645   1.00
H2       0.92631    1.22291    0.73545   1.00
C6       0.87649    1.25647    0.71844   1.00
H2       0.90795    1.14858    0.76533   1.00
C6       0.85367    1.13134    0.79072   1.00
C6       0.86239    1.15836    0.72399   1.00
H2       0.86192    1.25331    0.82671   1.00
C6       0.81246    1.24272    0.78987   1.00
C6       0.82999    1.20349    0.84795   1.00
C6       1.02606    1.17571    0.87327   1.00
C6       1.02421    1.10725    0.89882   1.00
H2       1.05797    1.12712    0.85141   1.00
H2       0.99327    1.05551    0.84030   1.00
C6       0.97779    1.04878    0.78039   1.00
C6       1.04595    1.04893    0.80714   1.00
H2       1.01578    1.11875    0.75339   1.00
C6       1.00185    1.17836    0.76269   1.00
C6       1.06654    1.14744    0.77589   1.00
H2       0.95188    1.26846    0.78481   1.00
H2       0.90820    1.29590    0.78363   1.00
H2       0.93925    1.29417    0.74243   1.00
H2       0.89265    1.26108    0.69131   1.00
H2       0.85248    1.23678    0.71197   1.00
H2       0.86383    1.28464    0.72630   1.00
H2       0.85721    1.10172    0.77936   1.00
H2       0.86250    1.13032    0.82120   1.00
H2       0.82267    1.13852    0.78928   1.00
H2       0.88126    1.17362    0.70337   1.00
H2       0.86096    1.12808    0.71396   1.00
H2       0.83298    1.17050    0.72213   1.00
H2       0.80112    1.22014    0.77045   1.00
H2       0.78863    1.25208    0.80895   1.00
H2       0.81988    1.26832    0.77271   1.00
H2       0.80688    1.18402    0.83788   1.00
H2       0.85089    1.18568    0.86360   1.00
H2       0.81692    1.22328    0.86933   1.00
H2       1.00015    1.18188    0.89061   1.00
H2       1.05132    1.18309    0.89132   1.00
H2       1.02633    1.19548    0.84842   1.00
H2       1.04623    1.11625    0.92011   1.00
H2       0.99592    1.11074    0.91278   1.00
H2       1.02901    1.07622    0.89362   1.00
H2       0.97665    1.01702    0.78345   1.00
H2       0.94779    1.05935    0.78268   1.00
H2       0.98843    1.05535    0.75111   1.00
H2       1.06636    1.05916    0.82933   1.00
H2       1.04469    1.01712    0.80963   1.00
H2       1.05786    1.05585    0.77840   1.00
H2       1.00427    1.20156    0.78433   1.00
H2       1.01452    1.18881    0.73537   1.00
H2       0.97105    1.17334    0.75727   1.00
H2       1.07619    1.15544    0.74654   1.00
H2       1.07465    1.17122    0.79553   1.00
H2       1.08306    1.12157    0.78423   1.00
C4       0.64416    0.91781    0.91383   1.00
C4       0.68588    0.91755    0.91451   1.00
C3       0.62136    0.95190    0.91971   1.00
C3       0.70884    0.95053    0.92463   1.00
C3       0.62377    0.88204    0.90753   1.00
C3       0.70614    0.88256    0.90447   1.00
C2       0.55988    0.91557    0.91395   1.00
C2       0.77012    0.91443    0.91605   1.00
C3       0.58038    0.95081    0.92000   1.00
C3       0.74981    0.94914    0.92504   1.00
C3       0.58242    0.88167    0.90719   1.00
C3       0.74738    0.88131    0.90668   1.00
H1       0.63385    0.97855    0.92383   1.00
H1       0.69648    0.97646    0.93225   1.00
C5       0.64480    0.84689    0.90143   1.00
C5       0.68520    0.84892    0.89262   1.00
H1       0.56545    0.97634    0.92469   1.00
H1       0.76490    0.97399    0.93226   1.00
H1       0.56820    0.85600    0.90156   1.00
H1       0.76132    0.85538    0.90183   1.00
O3       0.62539    0.81168    0.90188   1.00
O3       0.70401    0.81761    0.87552   1.00
Si1      0.62253    0.78670    0.94236   1.00
Si1      0.71221    0.81853    0.82862   1.00
C6       0.58962    0.75087    0.92543   1.00
C6       0.66902    0.76659    0.95135   1.00
C6       0.60247    0.81355    0.98149   1.00
C6       0.69807    0.86051    0.80217   1.00
C6       0.76302    0.81277    0.82558   1.00
C6       0.69023    0.77664    0.80851   1.00
C6       0.55306    0.76645    0.90276   1.00
H2       0.60709    0.73545    0.90369   1.00
C6       0.57353    0.71844    0.95351   1.00
H2       0.68142    0.76533    0.92205   1.00
C6       0.69866    0.79072    0.97633   1.00
C6       0.67164    0.72399    0.96761   1.00
H2       0.57669    0.82671    0.96808   1.00
C6       0.58728    0.78987    1.01754   1.00
C6       0.62651    0.84795    1.00001   1.00
C6       0.65429    0.87327    0.80394   1.00
C6       0.72275    0.89882    0.80579   1.00
H2       0.70288    0.85141    0.77203   1.00
H2       0.77449    0.84030    0.83673   1.00
C6       0.78122    0.78039    0.85221   1.00
C6       0.78107    0.80714    0.78405   1.00
H2       0.71125    0.75339    0.81422   1.00
C6       0.65164    0.76269    0.82815   1.00
C6       0.68256    0.77589    0.76346   1.00
H2       0.56154    0.78481    0.87812   1.00
H2       0.53410    0.78363    0.92180   1.00
H2       0.53583    0.74243    0.89075   1.00
H2       0.56892    0.69131    0.93735   1.00
H2       0.59322    0.71197    0.97752   1.00
H2       0.54536    0.72630    0.96617   1.00
H2       0.72828    0.77936    0.97279   1.00
H2       0.69968    0.82120    0.96750   1.00
H2       0.69148    0.78928    1.00733   1.00
H2       0.65638    0.70337    0.94874   1.00
H2       0.70192    0.71396    0.96904   1.00
H2       0.65950    0.72213    0.99702   1.00
H2       0.60986    0.77045    1.02888   1.00
H2       0.57792    0.80895    1.04137   1.00
H2       0.56168    0.77271    1.01012   1.00
H2       0.64598    0.83788    1.02312   1.00
H2       0.64432    0.86360    0.97911   1.00
H2       0.60672    0.86933    1.01308   1.00
H2       0.64812    0.89061    0.82985   1.00
H2       0.64691    0.89132    0.77868   1.00
H2       0.63452    0.84842    0.80367   1.00
H2       0.71375    0.92011    0.78377   1.00
H2       0.71926    0.91278    0.83408   1.00
H2       0.75378    0.89362    0.80099   1.00
H2       0.81298    0.78345    0.85335   1.00
H2       0.77065    0.78268    0.88221   1.00
H2       0.77465    0.75111    0.84157   1.00
H2       0.77084    0.82933    0.76364   1.00
H2       0.81288    0.80963    0.78531   1.00
H2       0.77415    0.77840    0.77214   1.00
H2       0.62844    0.78433    0.82573   1.00
H2       0.64119    0.73537    0.81548   1.00
H2       0.65666    0.75727    0.85895   1.00
H2       0.67456    0.74654    0.75381   1.00
H2       0.65878    0.79553    0.75535   1.00
H2       0.70843    0.78423    0.74694   1.00
C4       1.18584    0.91781    0.91617   1.00
C4       1.14412    0.91755    0.91549   1.00
C3       1.20864    0.95190    0.91029   1.00
C3       1.12116    0.95053    0.90537   1.00
C3       1.20623    0.88204    0.92247   1.00
C3       1.12386    0.88256    0.92553   1.00
C2       1.27012    0.91557    0.91605   1.00
C2       1.05988    0.91443    0.91395   1.00
C3       1.24962    0.95081    0.91000   1.00
C3       1.08019    0.94914    0.90496   1.00
C3       1.24758    0.88167    0.92281   1.00
C3       1.08262    0.88131    0.92332   1.00
H1       1.19615    0.97855    0.90617   1.00
H1       1.13352    0.97646    0.89775   1.00
C5       1.18520    0.84689    0.92857   1.00
C5       1.14480    0.84892    0.93738   1.00
H1       1.26455    0.97634    0.90531   1.00
H1       1.06510    0.97399    0.89774   1.00
H1       1.26180    0.85600    0.92844   1.00
H1       1.06868    0.85538    0.92817   1.00
O3       1.20461    0.81168    0.92812   1.00
O3       1.12599    0.81761    0.95448   1.00
Si1      1.20747    0.78670    0.88764   1.00
Si1      1.11779    0.81853    1.00138   1.00
C6       1.24038    0.75087    0.90457   1.00
C6       1.16098    0.76659    0.87865   1.00
C6       1.22753    0.81355    0.84851   1.00
C6       1.13193    0.86051    1.02783   1.00
C6       1.06698    0.81277    1.00442   1.00
C6       1.13977    0.77664    1.02149   1.00
C6       1.27694    0.76645    0.92724   1.00
H2       1.22291    0.73545    0.92631   1.00
C6       1.25647    0.71844    0.87649   1.00
H2       1.14858    0.76533    0.90795   1.00
C6       1.13134    0.79072    0.85367   1.00
C6       1.15836    0.72399    0.86239   1.00
H2       1.25331    0.82671    0.86192   1.00
C6       1.24272    0.78987    0.81246   1.00
C6       1.20349    0.84795    0.82999   1.00
C6       1.17571    0.87327    1.02606   1.00
C6       1.10725    0.89882    1.02421   1.00
H2       1.12712    0.85141    1.05797   1.00
H2       1.05551    0.84030    0.99327   1.00
C6       1.04878    0.78039    0.97779   1.00
C6       1.04893    0.80714    1.04595   1.00
H2       1.11875    0.75339    1.01578   1.00
C6       1.17836    0.76269    1.00185   1.00
C6       1.14744    0.77589    1.06654   1.00
H2       1.26846    0.78481    0.95188   1.00
H2       1.29590    0.78363    0.90820   1.00
H2       1.29417    0.74243    0.93925   1.00
H2       1.26108    0.69131    0.89265   1.00
H2       1.23678    0.71197    0.85248   1.00
H2       1.28464    0.72630    0.86383   1.00
H2       1.10172    0.77936    0.85721   1.00
H2       1.13032    0.82120    0.86250   1.00
H2       1.13852    0.78928    0.82267   1.00
H2       1.17362    0.70337    0.88126   1.00
H2       1.12808    0.71396    0.86096   1.00
H2       1.17050    0.72213    0.83298   1.00
H2       1.22014    0.77045    0.80112   1.00
H2       1.25208    0.80895    0.78863   1.00
H2       1.26832    0.77271    0.81988   1.00
H2       1.18402    0.83788    0.80688   1.00
H2       1.18568    0.86360    0.85089   1.00
H2       1.22328    0.86933    0.81692   1.00
H2       1.18188    0.89061    1.00015   1.00
H2       1.18309    0.89132    1.05132   1.00
H2       1.19548    0.84842    1.02633   1.00
H2       1.11625    0.92011    1.04623   1.00
H2       1.11074    0.91278    0.99592   1.00
H2       1.07622    0.89362    1.02901   1.00
H2       1.01702    0.78345    0.97665   1.00
H2       1.05935    0.78268    0.94779   1.00
H2       1.05535    0.75111    0.98843   1.00
H2       1.05916    0.82933    1.06636   1.00
H2       1.01712    0.80963    1.04469   1.00
H2       1.05585    0.77840    1.05786   1.00
H2       1.20156    0.78433    1.00427   1.00
H2       1.18881    0.73537    1.01452   1.00
H2       1.17334    0.75727    0.97105   1.00
H2       1.15544    0.74654    1.07619   1.00
H2       1.17122    0.79553    1.07465   1.00
H2       1.12157    0.78423    1.08306   1.00
C4       0.91383    0.64416    0.91781   1.00
C4       0.91451    0.68588    0.91755   1.00
C3       0.91971    0.62136    0.95190   1.00
C3       0.92463    0.70884    0.95053   1.00
C3       0.90753    0.62377    0.88204   1.00
C3       0.90447    0.70614    0.88256   1.00
C2       0.91395    0.55988    0.91557   1.00
C2       0.91605    0.77012    0.91443   1.00
C3       0.92000    0.58038    0.95081   1.00
C3       0.92504    0.74981    0.94914   1.00
C3       0.90719    0.58242    0.88167   1.00
C3       0.90668    0.74738    0.88131   1.00
H1       0.92383    0.63385    0.97855   1.00
H1       0.93225    0.69648    0.97646   1.00
C5       0.90143    0.64480    0.84689   1.00
C5       0.89262    0.68520    0.84892   1.00
H1       0.92469    0.56545    0.97634   1.00
H1       0.93226    0.76490    0.97399   1.00
H1       0.90156    0.56820    0.85600   1.00
H1       0.90183    0.76132    0.85538   1.00
O3       0.90188    0.62539    0.81168   1.00
O3       0.87552    0.70401    0.81761   1.00
Si1      0.94236    0.62253    0.78670   1.00
Si1      0.82862    0.71221    0.81853   1.00
C6       0.92543    0.58962    0.75087   1.00
C6       0.95135    0.66902    0.76659   1.00
C6       0.98149    0.60247    0.81355   1.00
C6       0.80217    0.69807    0.86051   1.00
C6       0.82558    0.76302    0.81277   1.00
C6       0.80851    0.69023    0.77664   1.00
C6       0.90276    0.55306    0.76645   1.00
H2       0.90369    0.60709    0.73545   1.00
C6       0.95351    0.57353    0.71844   1.00
H2       0.92205    0.68142    0.76533   1.00
C6       0.97633    0.69866    0.79072   1.00
C6       0.96761    0.67164    0.72399   1.00
H2       0.96808    0.57669    0.82671   1.00
C6       1.01754    0.58728    0.78987   1.00
C6       1.00001    0.62651    0.84795   1.00
C6       0.80394    0.65429    0.87327   1.00
C6       0.80579    0.72275    0.89882   1.00
H2       0.77203    0.70288    0.85141   1.00
H2       0.83673    0.77449    0.84030   1.00
C6       0.85221    0.78122    0.78039   1.00
C6       0.78405    0.78107    0.80714   1.00
H2       0.81422    0.71125    0.75339   1.00
C6       0.82815    0.65164    0.76269   1.00
C6       0.76346    0.68256    0.77589   1.00
H2       0.87812    0.56154    0.78481   1.00
H2       0.92180    0.53410    0.78363   1.00
H2       0.89075    0.53583    0.74243   1.00
H2       0.93735    0.56892    0.69131   1.00
H2       0.97752    0.59322    0.71197   1.00
H2       0.96617    0.54536    0.72630   1.00
H2       0.97279    0.72828    0.77936   1.00
H2       0.96750    0.69968    0.82120   1.00
H2       1.00733    0.69148    0.78928   1.00
H2       0.94874    0.65638    0.70337   1.00
H2       0.96904    0.70192    0.71396   1.00
H2       0.99702    0.65950    0.72213   1.00
H2       1.02888    0.60986    0.77045   1.00
H2       1.04137    0.57792    0.80895   1.00
H2       1.01012    0.56168    0.77271   1.00
H2       1.02312    0.64598    0.83788   1.00
H2       0.97911    0.64432    0.86360   1.00
H2       1.01308    0.60672    0.86933   1.00
H2       0.82985    0.64812    0.89061   1.00
H2       0.77868    0.64691    0.89132   1.00
H2       0.80367    0.63452    0.84842   1.00
H2       0.78377    0.71375    0.92011   1.00
H2       0.83408    0.71926    0.91278   1.00
H2       0.80099    0.75378    0.89362   1.00
H2       0.85335    0.81298    0.78345   1.00
H2       0.88221    0.77065    0.78268   1.00
H2       0.84157    0.77465    0.75111   1.00
H2       0.76364    0.77084    0.82933   1.00
H2       0.78531    0.81288    0.80963   1.00
H2       0.77214    0.77415    0.77840   1.00
H2       0.82573    0.62844    0.78433   1.00
H2       0.81548    0.64119    0.73537   1.00
H2       0.85895    0.65666    0.75727   1.00
H2       0.75381    0.67456    0.74654   1.00
H2       0.75535    0.65878    0.79553   1.00
H2       0.74694    0.70843    0.78423   1.00
C4       0.91781    0.91383    0.64416   1.00
C4       0.91755    0.91451    0.68588   1.00
C3       0.95190    0.91971    0.62136   1.00
C3       0.95053    0.92463    0.70884   1.00
C3       0.88204    0.90753    0.62377   1.00
C3       0.88256    0.90447    0.70614   1.00
C2       0.91557    0.91395    0.55988   1.00
C2       0.91443    0.91605    0.77012   1.00
C3       0.95081    0.92000    0.58038   1.00
C3       0.94914    0.92504    0.74981   1.00
C3       0.88167    0.90719    0.58242   1.00
C3       0.88131    0.90668    0.74738   1.00
H1       0.97855    0.92383    0.63385   1.00
H1       0.97646    0.93225    0.69648   1.00
C5       0.84689    0.90143    0.64480   1.00
C5       0.84892    0.89262    0.68520   1.00
H1       0.97634    0.92469    0.56545   1.00
H1       0.97399    0.93226    0.76490   1.00
H1       0.85600    0.90156    0.56820   1.00
H1       0.85538    0.90183    0.76132   1.00
O3       0.81168    0.90188    0.62539   1.00
O3       0.81761    0.87552    0.70401   1.00
Si1      0.78670    0.94236    0.62253   1.00
Si1      0.81853    0.82862    0.71221   1.00
C6       0.75087    0.92543    0.58962   1.00
C6       0.76659    0.95135    0.66902   1.00
C6       0.81355    0.98149    0.60247   1.00
C6       0.86051    0.80217    0.69807   1.00
C6       0.81277    0.82558    0.76302   1.00
C6       0.77664    0.80851    0.69023   1.00
C6       0.76645    0.90276    0.55306   1.00
H2       0.73545    0.90369    0.60709   1.00
C6       0.71844    0.95351    0.57353   1.00
H2       0.76533    0.92205    0.68142   1.00
C6       0.79072    0.97633    0.69866   1.00
C6       0.72399    0.96761    0.67164   1.00
H2       0.82671    0.96808    0.57669   1.00
C6       0.78987    1.01754    0.58728   1.00
C6       0.84795    1.00001    0.62651   1.00
C6       0.87327    0.80394    0.65429   1.00
C6       0.89882    0.80579    0.72275   1.00
H2       0.85141    0.77203    0.70288   1.00
H2       0.84030    0.83673    0.77449   1.00
C6       0.78039    0.85221    0.78122   1.00
C6       0.80714    0.78405    0.78107   1.00
H2       0.75339    0.81422    0.71125   1.00
C6       0.76269    0.82815    0.65164   1.00
C6       0.77589    0.76346    0.68256   1.00
H2       0.78481    0.87812    0.56154   1.00
H2       0.78363    0.92180    0.53410   1.00
H2       0.74243    0.89075    0.53583   1.00
H2       0.69131    0.93735    0.56892   1.00
H2       0.71197    0.97752    0.59322   1.00
H2       0.72630    0.96617    0.54536   1.00
H2       0.77936    0.97279    0.72828   1.00
H2       0.82120    0.96750    0.69968   1.00
H2       0.78928    1.00733    0.69148   1.00
H2       0.70337    0.94874    0.65638   1.00
H2       0.71396    0.96904    0.70192   1.00
H2       0.72213    0.99702    0.65950   1.00
H2       0.77045    1.02888    0.60986   1.00
H2       0.80895    1.04137    0.57792   1.00
H2       0.77271    1.01012    0.56168   1.00
H2       0.83788    1.02312    0.64598   1.00
H2       0.86360    0.97911    0.64432   1.00
H2       0.86933    1.01308    0.60672   1.00
H2       0.89061    0.82985    0.64812   1.00
H2       0.89132    0.77868    0.64691   1.00
H2       0.84842    0.80367    0.63452   1.00
H2       0.92011    0.78377    0.71375   1.00
H2       0.91278    0.83408    0.71926   1.00
H2       0.89362    0.80099    0.75378   1.00
H2       0.78345    0.85335    0.81298   1.00
H2       0.78268    0.88221    0.77065   1.00
H2       0.75111    0.84157    0.77465   1.00
H2       0.82933    0.76364    0.77084   1.00
H2       0.80963    0.78531    0.81288   1.00
H2       0.77840    0.77214    0.77415   1.00
H2       0.78433    0.82573    0.62844   1.00
H2       0.73537    0.81548    0.64119   1.00
H2       0.75727    0.85895    0.65666   1.00
H2       0.74654    0.75381    0.67456   1.00
H2       0.79553    0.75535    0.65878   1.00
H2       0.78423    0.74694    0.70843   1.00
C4       0.41781    0.41617    1.18584   1.00
C4       0.41755    0.41549    1.14412   1.00
C3       0.45190    0.41029    1.20864   1.00
C3       0.45053    0.40537    1.12116   1.00
C3       0.38204    0.42247    1.20623   1.00
C3       0.38256    0.42553    1.12386   1.00
C2       0.41557    0.41605    1.27012   1.00
C2       0.41443    0.41395    1.05988   1.00
C3       0.45081    0.41000    1.24962   1.00
C3       0.44914    0.40496    1.08019   1.00
C3       0.38167    0.42281    1.24758   1.00
C3       0.38131    0.42332    1.08262   1.00
H1       0.47855    0.40617    1.19615   1.00
H1       0.47646    0.39775    1.13352   1.00
C5       0.34689    0.42857    1.18520   1.00
C5       0.34892    0.43738    1.14480   1.00
H1       0.47634    0.40531    1.26455   1.00
H1       0.47399    0.39774    1.06510   1.00
H1       0.35600    0.42844    1.26180   1.00
H1       0.35538    0.42817    1.06868   1.00
O3       0.31168    0.42812    1.20461   1.00
O3       0.31761    0.45448    1.12599   1.00
Si1      0.28670    0.38764    1.20747   1.00
Si1      0.31853    0.50138    1.11779   1.00
C6       0.25087    0.40457    1.24038   1.00
C6       0.26659    0.37865    1.16098   1.00
C6       0.31355    0.34851    1.22753   1.00
C6       0.36051    0.52783    1.13193   1.00
C6       0.31277    0.50442    1.06698   1.00
C6       0.27664    0.52149    1.13977   1.00
C6       0.26645    0.42724    1.27694   1.00
H2       0.23545    0.42631    1.22291   1.00
C6       0.21844    0.37649    1.25647   1.00
H2       0.26533    0.40795    1.14858   1.00
C6       0.29072    0.35367    1.13134   1.00
C6       0.22399    0.36239    1.15836   1.00
H2       0.32671    0.36192    1.25331   1.00
C6       0.28987    0.31246    1.24272   1.00
C6       0.34795    0.32999    1.20349   1.00
C6       0.37327    0.52606    1.17571   1.00
C6       0.39882    0.52421    1.10725   1.00
H2       0.35141    0.55797    1.12712   1.00
H2       0.34030    0.49327    1.05551   1.00
C6       0.28039    0.47779    1.04878   1.00
C6       0.30714    0.54595    1.04893   1.00
H2       0.25339    0.51578    1.11875   1.00
C6       0.26269    0.50185    1.17836   1.00
C6       0.27589    0.56654    1.14744   1.00
H2       0.28481    0.45188    1.26846   1.00
H2       0.28363    0.40820    1.29590   1.00
H2       0.24243    0.43925    1.29417   1.00
H2       0.19131    0.39265    1.26108   1.00
H2       0.21197    0.35248    1.23678   1.00
H2       0.22630    0.36383    1.28464   1.00
H2       0.27936    0.35721    1.10172   1.00
H2       0.32120    0.36250    1.13032   1.00
H2       0.28928    0.32267    1.13852   1.00
H2       0.20337    0.38126    1.17362   1.00
H2       0.21396    0.36096    1.12808   1.00
H2       0.22213    0.33298    1.17050   1.00
H2       0.27045    0.30112    1.22014   1.00
H2       0.30895    0.28863    1.25208   1.00
H2       0.27271    0.31988    1.26832   1.00
H2       0.33788    0.30688    1.18402   1.00
H2       0.36360    0.35089    1.18568   1.00
H2       0.36933    0.31692    1.22328   1.00
H2       0.39061    0.50015    1.18188   1.00
H2       0.39132    0.55132    1.18309   1.00
H2       0.34842    0.52633    1.19548   1.00
H2       0.42011    0.54623    1.11625   1.00
H2       0.41278    0.49592    1.11074   1.00
H2       0.39362    0.52901    1.07622   1.00
H2       0.28345    0.47665    1.01702   1.00
H2       0.28268    0.44779    1.05935   1.00
H2       0.25111    0.48843    1.05535   1.00
H2       0.32933    0.56636    1.05916   1.00
H2       0.30963    0.54469    1.01712   1.00
H2       0.27840    0.55786    1.05585   1.00
H2       0.28433    0.50427    1.20156   1.00
H2       0.23537    0.51452    1.18881   1.00
H2       0.25727    0.47105    1.17334   1.00
H2       0.24654    0.57619    1.15544   1.00
H2       0.29553    0.57465    1.17122   1.00
H2       0.28423    0.58306    1.12157   1.00
C4       0.41617    0.68584    0.91781   1.00
C4       0.41549    0.64412    0.91755   1.00
C3       0.41029    0.70864    0.95190   1.00
C3       0.40537    0.62116    0.95053   1.00
C3       0.42247    0.70623    0.88204   1.00
C3       0.42553    0.62386    0.88256   1.00
C2       0.41605    0.77012    0.91557   1.00
C2       0.41395    0.55988    0.91443   1.00
C3       0.41000    0.74962    0.95081   1.00
C3       0.40496    0.58019    0.94914   1.00
C3       0.42281    0.74758    0.88167   1.00
C3       0.42332    0.58262    0.88131   1.00
H1       0.40617    0.69615    0.97855   1.00
H1       0.39775    0.63352    0.97646   1.00
C5       0.42857    0.68520    0.84689   1.00
C5       0.43738    0.64480    0.84892   1.00
H1       0.40531    0.76455    0.97634   1.00
H1       0.39774    0.56510    0.97399   1.00
H1       0.42844    0.76180    0.85600   1.00
H1       0.42817    0.56868    0.85538   1.00
O3       0.42812    0.70461    0.81168   1.00
O3       0.45448    0.62599    0.81761   1.00
Si1      0.38764    0.70747    0.78670   1.00
Si1      0.50138    0.61779    0.81853   1.00
C6       0.40457    0.74038    0.75087   1.00
C6       0.37865    0.66098    0.76659   1.00
C6       0.34851    0.72753    0.81355   1.00
C6       0.52783    0.63193    0.86051   1.00
C6       0.50442    0.56698    0.81277   1.00
C6       0.52149    0.63977    0.77664   1.00
C6       0.42724    0.77694    0.76645   1.00
H2       0.42631    0.72291    0.73545   1.00
C6       0.37649    0.75647    0.71844   1.00
H2       0.40795    0.64858    0.76533   1.00
C6       0.35367    0.63134    0.79072   1.00
C6       0.36239    0.65836    0.72399   1.00
H2       0.36192    0.75331    0.82671   1.00
C6       0.31246    0.74272    0.78987   1.00
C6       0.32999    0.70349    0.84795   1.00
C6       0.52606    0.67571    0.87327   1.00
C6       0.52421    0.60725    0.89882   1.00
H2       0.55797    0.62712    0.85141   1.00
H2       0.49327    0.55551    0.84030   1.00
C6       0.47779    0.54878    0.78039   1.00
C6       0.54595    0.54893    0.80714   1.00
H2       0.51578    0.61875    0.75339   1.00
C6       0.50185    0.67836    0.76269   1.00
C6       0.56654    0.64744    0.77589   1.00
H2       0.45188    0.76846    0.78481   1.00
H2       0.40820    0.79590    0.78363   1.00
H2       0.43925    0.79417    0.74243   1.00
H2       0.39265    0.76108    0.69131   1.00
H2       0.35248    0.73678    0.71197   1.00
H2       0.36383    0.78464    0.72630   1.00
H2       0.35721    0.60172    0.77936   1.00
H2       0.36250    0.63032    0.82120   1.00
H2       0.32267    0.63852    0.78928   1.00
H2       0.38126    0.67362    0.70337   1.00
H2       0.36096    0.62808    0.71396   1.00
H2       0.33298    0.67050    0.72213   1.00
H2       0.30112    0.72014    0.77045   1.00
H2       0.28863    0.75208    0.80895   1.00
H2       0.31988    0.76832    0.77271   1.00
H2       0.30688    0.68402    0.83788   1.00
H2       0.35089    0.68568    0.86360   1.00
H2       0.31692    0.72328    0.86933   1.00
H2       0.50015    0.68188    0.89061   1.00
H2       0.55132    0.68309    0.89132   1.00
H2       0.52633    0.69548    0.84842   1.00
H2       0.54623    0.61625    0.92011   1.00
H2       0.49592    0.61074    0.91278   1.00
H2       0.52901    0.57622    0.89362   1.00
H2       0.47665    0.51702    0.78345   1.00
H2       0.44779    0.55935    0.78268   1.00
H2       0.48843    0.55535    0.75111   1.00
H2       0.56636    0.55916    0.82933   1.00
H2       0.54469    0.51712    0.80963   1.00
H2       0.55786    0.55585    0.77840   1.00
H2       0.50427    0.70156    0.78433   1.00
H2       0.51452    0.68881    0.73537   1.00
H2       0.47105    0.67334    0.75727   1.00
H2       0.57619    0.65544    0.74654   1.00
H2       0.57465    0.67122    0.79553   1.00
H2       0.58306    0.62157    0.78423   1.00
C4       0.14416    0.41781    0.91383   1.00
C4       0.18588    0.41755    0.91451   1.00
C3       0.12136    0.45190    0.91971   1.00
C3       0.20884    0.45053    0.92463   1.00
C3       0.12377    0.38204    0.90753   1.00
C3       0.20614    0.38256    0.90447   1.00
C2       0.05988    0.41557    0.91395   1.00
C2       0.27012    0.41443    0.91605   1.00
C3       0.08038    0.45081    0.92000   1.00
C3       0.24981    0.44914    0.92504   1.00
C3       0.08242    0.38167    0.90719   1.00
C3       0.24738    0.38131    0.90668   1.00
H1       0.13385    0.47855    0.92383   1.00
H1       0.19648    0.47646    0.93225   1.00
C5       0.14480    0.34689    0.90143   1.00
C5       0.18520    0.34892    0.89262   1.00
H1       0.06545    0.47634    0.92469   1.00
H1       0.26490    0.47399    0.93226   1.00
H1       0.06820    0.35600    0.90156   1.00
H1       0.26132    0.35538    0.90183   1.00
O3       0.12539    0.31168    0.90188   1.00
O3       0.20401    0.31761    0.87552   1.00
Si1      0.12253    0.28670    0.94236   1.00
Si1      0.21221    0.31853    0.82862   1.00
C6       0.08962    0.25087    0.92543   1.00
C6       0.16902    0.26659    0.95135   1.00
C6       0.10247    0.31355    0.98149   1.00
C6       0.19807    0.36051    0.80217   1.00
C6       0.26302    0.31277    0.82558   1.00
C6       0.19023    0.27664    0.80851   1.00
C6       0.05306    0.26645    0.90276   1.00
H2       0.10709    0.23545    0.90369   1.00
C6       0.07353    0.21844    0.95351   1.00
H2       0.18142    0.26533    0.92205   1.00
C6       0.19866    0.29072    0.97633   1.00
C6       0.17164    0.22399    0.96761   1.00
H2       0.07669    0.32671    0.96808   1.00
C6       0.08728    0.28987    1.01754   1.00
C6       0.12651    0.34795    1.00001   1.00
C6       0.15429    0.37327    0.80394   1.00
C6       0.22275    0.39882    0.80579   1.00
H2       0.20288    0.35141    0.77203   1.00
H2       0.27449    0.34030    0.83673   1.00
C6       0.28122    0.28039    0.85221   1.00
C6       0.28107    0.30714    0.78405   1.00
H2       0.21125    0.25339    0.81422   1.00
C6       0.15164    0.26269    0.82815   1.00
C6       0.18256    0.27589    0.76346   1.00
H2       0.06154    0.28481    0.87812   1.00
H2       0.03410    0.28363    0.92180   1.00
H2       0.03583    0.24243    0.89075   1.00
H2       0.06892    0.19131    0.93735   1.00
H2       0.09322    0.21197    0.97752   1.00
H2       0.04536    0.22630    0.96617   1.00
H2       0.22828    0.27936    0.97279   1.00
H2       0.19968    0.32120    0.96750   1.00
H2       0.19148    0.28928    1.00733   1.00
H2       0.15638    0.20337    0.94874   1.00
H2       0.20192    0.21396    0.96904   1.00
H2       0.15950    0.22213    0.99702   1.00
H2       0.10986    0.27045    1.02888   1.00
H2       0.07792    0.30895    1.04137   1.00
H2       0.06168    0.27271    1.01012   1.00
H2       0.14598    0.33788    1.02312   1.00
H2       0.14432    0.36360    0.97911   1.00
H2       0.10672    0.36933    1.01308   1.00
H2       0.14812    0.39061    0.82985   1.00
H2       0.14691    0.39132    0.77868   1.00
H2       0.13452    0.34842    0.80367   1.00
H2       0.21375    0.42011    0.78377   1.00
H2       0.21926    0.41278    0.83408   1.00
H2       0.25378    0.39362    0.80099   1.00
H2       0.31298    0.28345    0.85335   1.00
H2       0.27065    0.28268    0.88221   1.00
H2       0.27465    0.25111    0.84157   1.00
H2       0.27084    0.32933    0.76364   1.00
H2       0.31288    0.30963    0.78531   1.00
H2       0.27415    0.27840    0.77214   1.00
H2       0.12844    0.28433    0.82573   1.00
H2       0.14119    0.23537    0.81548   1.00
H2       0.15666    0.25727    0.85895   1.00
H2       0.17456    0.24654    0.75381   1.00
H2       0.15878    0.29553    0.75535   1.00
H2       0.20843    0.28423    0.74694   1.00
C4       0.68584    0.41781    0.91617   1.00
C4       0.64412    0.41755    0.91549   1.00
C3       0.70864    0.45190    0.91029   1.00
C3       0.62116    0.45053    0.90537   1.00
C3       0.70623    0.38204    0.92247   1.00
C3       0.62386    0.38256    0.92553   1.00
C2       0.77012    0.41557    0.91605   1.00
C2       0.55988    0.41443    0.91395   1.00
C3       0.74962    0.45081    0.91000   1.00
C3       0.58019    0.44914    0.90496   1.00
C3       0.74758    0.38167    0.92281   1.00
C3       0.58262    0.38131    0.92332   1.00
H1       0.69615    0.47855    0.90617   1.00
H1       0.63352    0.47646    0.89775   1.00
C5       0.68520    0.34689    0.92857   1.00
C5       0.64480    0.34892    0.93738   1.00
H1       0.76455    0.47634    0.90531   1.00
H1       0.56510    0.47399    0.89774   1.00
H1       0.76180    0.35600    0.92844   1.00
H1       0.56868    0.35538    0.92817   1.00
O3       0.70461    0.31168    0.92812   1.00
O3       0.62599    0.31761    0.95448   1.00
Si1      0.70747    0.28670    0.88764   1.00
Si1      0.61779    0.31853    1.00138   1.00
C6       0.74038    0.25087    0.90457   1.00
C6       0.66098    0.26659    0.87865   1.00
C6       0.72753    0.31355    0.84851   1.00
C6       0.63193    0.36051    1.02783   1.00
C6       0.56698    0.31277    1.00442   1.00
C6       0.63977    0.27664    1.02149   1.00
C6       0.77694    0.26645    0.92724   1.00
H2       0.72291    0.23545    0.92631   1.00
C6       0.75647    0.21844    0.87649   1.00
H2       0.64858    0.26533    0.90795   1.00
C6       0.63134    0.29072    0.85367   1.00
C6       0.65836    0.22399    0.86239   1.00
H2       0.75331    0.32671    0.86192   1.00
C6       0.74272    0.28987    0.81246   1.00
C6       0.70349    0.34795    0.82999   1.00
C6       0.67571    0.37327    1.02606   1.00
C6       0.60725    0.39882    1.02421   1.00
H2       0.62712    0.35141    1.05797   1.00
H2       0.55551    0.34030    0.99327   1.00
C6       0.54878    0.28039    0.97779   1.00
C6       0.54893    0.30714    1.04595   1.00
H2       0.61875    0.25339    1.01578   1.00
C6       0.67836    0.26269    1.00185   1.00
C6       0.64744    0.27589    1.06654   1.00
H2       0.76846    0.28481    0.95188   1.00
H2       0.79590    0.28363    0.90820   1.00
H2       0.79417    0.24243    0.93925   1.00
H2       0.76108    0.19131    0.89265   1.00
H2       0.73678    0.21197    0.85248   1.00
H2       0.78464    0.22630    0.86383   1.00
H2       0.60172    0.27936    0.85721   1.00
H2       0.63032    0.32120    0.86250   1.00
H2       0.63852    0.28928    0.82267   1.00
H2       0.67362    0.20337    0.88126   1.00
H2       0.62808    0.21396    0.86096   1.00
H2       0.67050    0.22213    0.83298   1.00
H2       0.72014    0.27045    0.80112   1.00
H2       0.75208    0.30895    0.78863   1.00
H2       0.76832    0.27271    0.81988   1.00
H2       0.68402    0.33788    0.80688   1.00
H2       0.68568    0.36360    0.85089   1.00
H2       0.72328    0.36933    0.81692   1.00
H2       0.68188    0.39061    1.00015   1.00
H2       0.68309    0.39132    1.05132   1.00
H2       0.69548    0.34842    1.02633   1.00
H2       0.61625    0.42011    1.04623   1.00
H2       0.61074    0.41278    0.99592   1.00
H2       0.57622    0.39362    1.02901   1.00
H2       0.51702    0.28345    0.97665   1.00
H2       0.55935    0.28268    0.94779   1.00
H2       0.55535    0.25111    0.98843   1.00
H2       0.55916    0.32933    1.06636   1.00
H2       0.51712    0.30963    1.04469   1.00
H2       0.55585    0.27840    1.05786   1.00
H2       0.70156    0.28433    1.00427   1.00
H2       0.68881    0.23537    1.01452   1.00
H2       0.67334    0.25727    0.97105   1.00
H2       0.65544    0.24654    1.07619   1.00
H2       0.67122    0.29553    1.07465   1.00
H2       0.62157    0.28423    1.08306   1.00
C4       0.41383    0.14416    0.91781   1.00
C4       0.41451    0.18588    0.91755   1.00
C3       0.41971    0.12136    0.95190   1.00
C3       0.42463    0.20884    0.95053   1.00
C3       0.40753    0.12377    0.88204   1.00
C3       0.40447    0.20614    0.88256   1.00
C2       0.41395    0.05988    0.91557   1.00
C2       0.41605    0.27012    0.91443   1.00
C3       0.42000    0.08038    0.95081   1.00
C3       0.42504    0.24981    0.94914   1.00
C3       0.40719    0.08242    0.88167   1.00
C3       0.40668    0.24738    0.88131   1.00
H1       0.42383    0.13385    0.97855   1.00
H1       0.43225    0.19648    0.97646   1.00
C5       0.40143    0.14480    0.84689   1.00
C5       0.39262    0.18520    0.84892   1.00
H1       0.42469    0.06545    0.97634   1.00
H1       0.43226    0.26490    0.97399   1.00
H1       0.40156    0.06820    0.85600   1.00
H1       0.40183    0.26132    0.85538   1.00
O3       0.40188    0.12539    0.81168   1.00
O3       0.37552    0.20401    0.81761   1.00
Si1      0.44236    0.12253    0.78670   1.00
Si1      0.32862    0.21221    0.81853   1.00
C6       0.42543    0.08962    0.75087   1.00
C6       0.45135    0.16902    0.76659   1.00
C6       0.48149    0.10247    0.81355   1.00
C6       0.30217    0.19807    0.86051   1.00
C6       0.32558    0.26302    0.81277   1.00
C6       0.30851    0.19023    0.77664   1.00
C6       0.40276    0.05306    0.76645   1.00
H2       0.40369    0.10709    0.73545   1.00
C6       0.45351    0.07353    0.71844   1.00
H2       0.42205    0.18142    0.76533   1.00
C6       0.47633    0.19866    0.79072   1.00
C6       0.46761    0.17164    0.72399   1.00
H2       0.46808    0.07669    0.82671   1.00
C6       0.51754    0.08728    0.78987   1.00
C6       0.50001    0.12651    0.84795   1.00
C6       0.30394    0.15429    0.87327   1.00
C6       0.30579    0.22275    0.89882   1.00
H2       0.27203    0.20288    0.85141   1.00
H2       0.33673    0.27449    0.84030   1.00
C6       0.35221    0.28122    0.78039   1.00
C6       0.28405    0.28107    0.80714   1.00
H2       0.31422    0.21125    0.75339   1.00
C6       0.32815    0.15164    0.76269   1.00
C6       0.26346    0.18256    0.77589   1.00
H2       0.37812    0.06154    0.78481   1.00
H2       0.42180    0.03410    0.78363   1.00
H2       0.39075    0.03583    0.74243   1.00
H2       0.43735    0.06892    0.69131   1.00
H2       0.47752    0.09322    0.71197   1.00
H2       0.46617    0.04536    0.72630   1.00
H2       0.47279    0.22828    0.77936   1.00
H2       0.46750    0.19968    0.82120   1.00
H2       0.50733    0.19148    0.78928   1.00
H2       0.44874    0.15638    0.70337   1.00
H2       0.46904    0.20192    0.71396   1.00
H2       0.49702    0.15950    0.72213   1.00
H2       0.52888    0.10986    0.77045   1.00
H2       0.54137    0.07792    0.80895   1.00
H2       0.51012    0.06168    0.77271   1.00
H2       0.52312    0.14598    0.83788   1.00
H2       0.47911    0.14432    0.86360   1.00
H2       0.51308    0.10672    0.86933   1.00
H2       0.32985    0.14812    0.89061   1.00
H2       0.27868    0.14691    0.89132   1.00
H2       0.30367    0.13452    0.84842   1.00
H2       0.28377    0.21375    0.92011   1.00
H2       0.33408    0.21926    0.91278   1.00
H2       0.30099    0.25378    0.89362   1.00
H2       0.35335    0.31298    0.78345   1.00
H2       0.38221    0.27065    0.78268   1.00
H2       0.34157    0.27465    0.75111   1.00
H2       0.26364    0.27084    0.82933   1.00
H2       0.28531    0.31288    0.80963   1.00
H2       0.27214    0.27415    0.77840   1.00
H2       0.32573    0.12844    0.78433   1.00
H2       0.31548    0.14119    0.73537   1.00
H2       0.35895    0.15666    0.75727   1.00
H2       0.25381    0.17456    0.74654   1.00
H2       0.25535    0.15878    0.79553   1.00
H2       0.24694    0.20843    0.78423   1.00
C4       0.41781    0.41383    0.64416   1.00
C4       0.41755    0.41451    0.68588   1.00
C3       0.45190    0.41971    0.62136   1.00
C3       0.45053    0.42463    0.70884   1.00
C3       0.38204    0.40753    0.62377   1.00
C3       0.38256    0.40447    0.70614   1.00
C2       0.41557    0.41395    0.55988   1.00
C2       0.41443    0.41605    0.77012   1.00
C3       0.45081    0.42000    0.58038   1.00
C3       0.44914    0.42504    0.74981   1.00
C3       0.38167    0.40719    0.58242   1.00
C3       0.38131    0.40668    0.74738   1.00
H1       0.47855    0.42383    0.63385   1.00
H1       0.47646    0.43225    0.69648   1.00
C5       0.34689    0.40143    0.64480   1.00
C5       0.34892    0.39262    0.68520   1.00
H1       0.47634    0.42469    0.56545   1.00
H1       0.47399    0.43226    0.76490   1.00
H1       0.35600    0.40156    0.56820   1.00
H1       0.35538    0.40183    0.76132   1.00
O3       0.31168    0.40188    0.62539   1.00
O3       0.31761    0.37552    0.70401   1.00
Si1      0.28670    0.44236    0.62253   1.00
Si1      0.31853    0.32862    0.71221   1.00
C6       0.25087    0.42543    0.58962   1.00
C6       0.26659    0.45135    0.66902   1.00
C6       0.31355    0.48149    0.60247   1.00
C6       0.36051    0.30217    0.69807   1.00
C6       0.31277    0.32558    0.76302   1.00
C6       0.27664    0.30851    0.69023   1.00
C6       0.26645    0.40276    0.55306   1.00
H2       0.23545    0.40369    0.60709   1.00
C6       0.21844    0.45351    0.57353   1.00
H2       0.26533    0.42205    0.68142   1.00
C6       0.29072    0.47633    0.69866   1.00
C6       0.22399    0.46761    0.67164   1.00
H2       0.32671    0.46808    0.57669   1.00
C6       0.28987    0.51754    0.58728   1.00
C6       0.34795    0.50001    0.62651   1.00
C6       0.37327    0.30394    0.65429   1.00
C6       0.39882    0.30579    0.72275   1.00
H2       0.35141    0.27203    0.70288   1.00
H2       0.34030    0.33673    0.77449   1.00
C6       0.28039    0.35221    0.78122   1.00
C6       0.30714    0.28405    0.78107   1.00
H2       0.25339    0.31422    0.71125   1.00
C6       0.26269    0.32815    0.65164   1.00
C6       0.27589    0.26346    0.68256   1.00
H2       0.28481    0.37812    0.56154   1.00
H2       0.28363    0.42180    0.53410   1.00
H2       0.24243    0.39075    0.53583   1.00
H2       0.19131    0.43735    0.56892   1.00
H2       0.21197    0.47752    0.59322   1.00
H2       0.22630    0.46617    0.54536   1.00
H2       0.27936    0.47279    0.72828   1.00
H2       0.32120    0.46750    0.69968   1.00
H2       0.28928    0.50733    0.69148   1.00
H2       0.20337    0.44874    0.65638   1.00
H2       0.21396    0.46904    0.70192   1.00
H2       0.22213    0.49702    0.65950   1.00
H2       0.27045    0.52888    0.60986   1.00
H2       0.30895    0.54137    0.57792   1.00
H2       0.27271    0.51012    0.56168   1.00
H2       0.33788    0.52312    0.64598   1.00
H2       0.36360    0.47911    0.64432   1.00
H2       0.36933    0.51308    0.60672   1.00
H2       0.39061    0.32985    0.64812   1.00
H2       0.39132    0.27868    0.64691   1.00
H2       0.34842    0.30367    0.63452   1.00
H2       0.42011    0.28377    0.71375   1.00
H2       0.41278    0.33408    0.71926   1.00
H2       0.39362    0.30099    0.75378   1.00
H2       0.28345    0.35335    0.81298   1.00
H2       0.28268    0.38221    0.77065   1.00
H2       0.25111    0.34157    0.77465   1.00
H2       0.32933    0.26364    0.77084   1.00
H2       0.30963    0.28531    0.81288   1.00
H2       0.27840    0.27214    0.77415   1.00
H2       0.28433    0.32573    0.62844   1.00
H2       0.23537    0.31548    0.64119   1.00
H2       0.25727    0.35895    0.65666   1.00
H2       0.24654    0.25381    0.67456   1.00
H2       0.29553    0.25535    0.65878   1.00
H2       0.28423    0.24694    0.70843   1.00
C4       0.41781    0.91617    0.68584   1.00
C4       0.41755    0.91549    0.64412   1.00
C3       0.45190    0.91029    0.70864   1.00
C3       0.45053    0.90537    0.62116   1.00
C3       0.38204    0.92247    0.70623   1.00
C3       0.38256    0.92553    0.62386   1.00
C2       0.41557    0.91605    0.77012   1.00
C2       0.41443    0.91395    0.55988   1.00
C3       0.45081    0.91000    0.74962   1.00
C3       0.44914    0.90496    0.58019   1.00
C3       0.38167    0.92281    0.74758   1.00
C3       0.38131    0.92332    0.58262   1.00
H1       0.47855    0.90617    0.69615   1.00
H1       0.47646    0.89775    0.63352   1.00
C5       0.34689    0.92857    0.68520   1.00
C5       0.34892    0.93738    0.64480   1.00
H1       0.47634    0.90531    0.76455   1.00
H1       0.47399    0.89774    0.56510   1.00
H1       0.35600    0.92844    0.76180   1.00
H1       0.35538    0.92817    0.56868   1.00
O3       0.31168    0.92812    0.70461   1.00
O3       0.31761    0.95448    0.62599   1.00
Si1      0.28670    0.88764    0.70747   1.00
Si1      0.31853    1.00138    0.61779   1.00
C6       0.25087    0.90457    0.74038   1.00
C6       0.26659    0.87865    0.66098   1.00
C6       0.31355    0.84851    0.72753   1.00
C6       0.36051    1.02783    0.63193   1.00
C6       0.31277    1.00442    0.56698   1.00
C6       0.27664    1.02149    0.63977   1.00
C6       0.26645    0.92724    0.77694   1.00
H2       0.23545    0.92631    0.72291   1.00
C6       0.21844    0.87649    0.75647   1.00
H2       0.26533    0.90795    0.64858   1.00
C6       0.29072    0.85367    0.63134   1.00
C6       0.22399    0.86239    0.65836   1.00
H2       0.32671    0.86192    0.75331   1.00
C6       0.28987    0.81246    0.74272   1.00
C6       0.34795    0.82999    0.70349   1.00
C6       0.37327    1.02606    0.67571   1.00
C6       0.39882    1.02421    0.60725   1.00
H2       0.35141    1.05797    0.62712   1.00
H2       0.34030    0.99327    0.55551   1.00
C6       0.28039    0.97779    0.54878   1.00
C6       0.30714    1.04595    0.54893   1.00
H2       0.25339    1.01578    0.61875   1.00
C6       0.26269    1.00185    0.67836   1.00
C6       0.27589    1.06654    0.64744   1.00
H2       0.28481    0.95188    0.76846   1.00
H2       0.28363    0.90820    0.79590   1.00
H2       0.24243    0.93925    0.79417   1.00
H2       0.19131    0.89265    0.76108   1.00
H2       0.21197    0.85248    0.73678   1.00
H2       0.22630    0.86383    0.78464   1.00
H2       0.27936    0.85721    0.60172   1.00
H2       0.32120    0.86250    0.63032   1.00
H2       0.28928    0.82267    0.63852   1.00
H2       0.20337    0.88126    0.67362   1.00
H2       0.21396    0.86096    0.62808   1.00
H2       0.22213    0.83298    0.67050   1.00
H2       0.27045    0.80112    0.72014   1.00
H2       0.30895    0.78863    0.75208   1.00
H2       0.27271    0.81988    0.76832   1.00
H2       0.33788    0.80688    0.68402   1.00
H2       0.36360    0.85089    0.68568   1.00
H2       0.36933    0.81692    0.72328   1.00
H2       0.39061    1.00015    0.68188   1.00
H2       0.39132    1.05132    0.68309   1.00
H2       0.34842    1.02633    0.69548   1.00
H2       0.42011    1.04623    0.61625   1.00
H2       0.41278    0.99592    0.61074   1.00
H2       0.39362    1.02901    0.57622   1.00
H2       0.28345    0.97665    0.51702   1.00
H2       0.28268    0.94779    0.55935   1.00
H2       0.25111    0.98843    0.55535   1.00
H2       0.32933    1.06636    0.55916   1.00
H2       0.30963    1.04469    0.51712   1.00
H2       0.27840    1.05786    0.55585   1.00
H2       0.28433    1.00427    0.70156   1.00
H2       0.23537    1.01452    0.68881   1.00
H2       0.25727    0.97105    0.67334   1.00
H2       0.24654    1.07619    0.65544   1.00
H2       0.29553    1.07465    0.67122   1.00
H2       0.28423    1.08306    0.62157   1.00
C4       0.41617    1.18584    0.41781   1.00
C4       0.41549    1.14412    0.41755   1.00
C3       0.41029    1.20864    0.45190   1.00
C3       0.40537    1.12116    0.45053   1.00
C3       0.42247    1.20623    0.38204   1.00
C3       0.42553    1.12386    0.38256   1.00
C2       0.41605    1.27012    0.41557   1.00
C2       0.41395    1.05988    0.41443   1.00
C3       0.41000    1.24962    0.45081   1.00
C3       0.40496    1.08019    0.44914   1.00
C3       0.42281    1.24758    0.38167   1.00
C3       0.42332    1.08262    0.38131   1.00
H1       0.40617    1.19615    0.47855   1.00
H1       0.39775    1.13352    0.47646   1.00
C5       0.42857    1.18520    0.34689   1.00
C5       0.43738    1.14480    0.34892   1.00
H1       0.40531    1.26455    0.47634   1.00
H1       0.39774    1.06510    0.47399   1.00
H1       0.42844    1.26180    0.35600   1.00
H1       0.42817    1.06868    0.35538   1.00
O3       0.42812    1.20461    0.31168   1.00
O3       0.45448    1.12599    0.31761   1.00
Si1      0.38764    1.20747    0.28670   1.00
Si1      0.50138    1.11779    0.31853   1.00
C6       0.40457    1.24038    0.25087   1.00
C6       0.37865    1.16098    0.26659   1.00
C6       0.34851    1.22753    0.31355   1.00
C6       0.52783    1.13193    0.36051   1.00
C6       0.50442    1.06698    0.31277   1.00
C6       0.52149    1.13977    0.27664   1.00
C6       0.42724    1.27694    0.26645   1.00
H2       0.42631    1.22291    0.23545   1.00
C6       0.37649    1.25647    0.21844   1.00
H2       0.40795    1.14858    0.26533   1.00
C6       0.35367    1.13134    0.29072   1.00
C6       0.36239    1.15836    0.22399   1.00
H2       0.36192    1.25331    0.32671   1.00
C6       0.31246    1.24272    0.28987   1.00
C6       0.32999    1.20349    0.34795   1.00
C6       0.52606    1.17571    0.37327   1.00
C6       0.52421    1.10725    0.39882   1.00
H2       0.55797    1.12712    0.35141   1.00
H2       0.49327    1.05551    0.34030   1.00
C6       0.47779    1.04878    0.28039   1.00
C6       0.54595    1.04893    0.30714   1.00
H2       0.51578    1.11875    0.25339   1.00
C6       0.50185    1.17836    0.26269   1.00
C6       0.56654    1.14744    0.27589   1.00
H2       0.45188    1.26846    0.28481   1.00
H2       0.40820    1.29590    0.28363   1.00
H2       0.43925    1.29417    0.24243   1.00
H2       0.39265    1.26108    0.19131   1.00
H2       0.35248    1.23678    0.21197   1.00
H2       0.36383    1.28464    0.22630   1.00
H2       0.35721    1.10172    0.27936   1.00
H2       0.36250    1.13032    0.32120   1.00
H2       0.32267    1.13852    0.28928   1.00
H2       0.38126    1.17362    0.20337   1.00
H2       0.36096    1.12808    0.21396   1.00
H2       0.33298    1.17050    0.22213   1.00
H2       0.30112    1.22014    0.27045   1.00
H2       0.28863    1.25208    0.30895   1.00
H2       0.31988    1.26832    0.27271   1.00
H2       0.30688    1.18402    0.33788   1.00
H2       0.35089    1.18568    0.36360   1.00
H2       0.31692    1.22328    0.36933   1.00
H2       0.50015    1.18188    0.39061   1.00
H2       0.55132    1.18309    0.39132   1.00
H2       0.52633    1.19548    0.34842   1.00
H2       0.54623    1.11625    0.42011   1.00
H2       0.49592    1.11074    0.41278   1.00
H2       0.52901    1.07622    0.39362   1.00
H2       0.47665    1.01702    0.28345   1.00
H2       0.44779    1.05935    0.28268   1.00
H2       0.48843    1.05535    0.25111   1.00
H2       0.56636    1.05916    0.32933   1.00
H2       0.54469    1.01712    0.30963   1.00
H2       0.55786    1.05585    0.27840   1.00
H2       0.50427    1.20156    0.28433   1.00
H2       0.51452    1.18881    0.23537   1.00
H2       0.47105    1.17334    0.25727   1.00
H2       0.57619    1.15544    0.24654   1.00
H2       0.57465    1.17122    0.29553   1.00
H2       0.58306    1.12157    0.28423   1.00
C4       0.14416    0.91781    0.41383   1.00
C4       0.18588    0.91755    0.41451   1.00
C3       0.12136    0.95190    0.41971   1.00
C3       0.20884    0.95053    0.42463   1.00
C3       0.12377    0.88204    0.40753   1.00
C3       0.20614    0.88256    0.40447   1.00
C2       0.05988    0.91557    0.41395   1.00
C2       0.27012    0.91443    0.41605   1.00
C3       0.08038    0.95081    0.42000   1.00
C3       0.24981    0.94914    0.42504   1.00
C3       0.08242    0.88167    0.40719   1.00
C3       0.24738    0.88131    0.40668   1.00
H1       0.13385    0.97855    0.42383   1.00
H1       0.19648    0.97646    0.43225   1.00
C5       0.14480    0.84689    0.40143   1.00
C5       0.18520    0.84892    0.39262   1.00
H1       0.06545    0.97634    0.42469   1.00
H1       0.26490    0.97399    0.43226   1.00
H1       0.06820    0.85600    0.40156   1.00
H1       0.26132    0.85538    0.40183   1.00
O3       0.12539    0.81168    0.40188   1.00
O3       0.20401    0.81761    0.37552   1.00
Si1      0.12253    0.78670    0.44236   1.00
Si1      0.21221    0.81853    0.32862   1.00
C6       0.08962    0.75087    0.42543   1.00
C6       0.16902    0.76659    0.45135   1.00
C6       0.10247    0.81355    0.48149   1.00
C6       0.19807    0.86051    0.30217   1.00
C6       0.26302    0.81277    0.32558   1.00
C6       0.19023    0.77664    0.30851   1.00
C6       0.05306    0.76645    0.40276   1.00
H2       0.10709    0.73545    0.40369   1.00
C6       0.07353    0.71844    0.45351   1.00
H2       0.18142    0.76533    0.42205   1.00
C6       0.19866    0.79072    0.47633   1.00
C6       0.17164    0.72399    0.46761   1.00
H2       0.07669    0.82671    0.46808   1.00
C6       0.08728    0.78987    0.51754   1.00
C6       0.12651    0.84795    0.50001   1.00
C6       0.15429    0.87327    0.30394   1.00
C6       0.22275    0.89882    0.30579   1.00
H2       0.20288    0.85141    0.27203   1.00
H2       0.27449    0.84030    0.33673   1.00
C6       0.28122    0.78039    0.35221   1.00
C6       0.28107    0.80714    0.28405   1.00
H2       0.21125    0.75339    0.31422   1.00
C6       0.15164    0.76269    0.32815   1.00
C6       0.18256    0.77589    0.26346   1.00
H2       0.06154    0.78481    0.37812   1.00
H2       0.03410    0.78363    0.42180   1.00
H2       0.03583    0.74243    0.39075   1.00
H2       0.06892    0.69131    0.43735   1.00
H2       0.09322    0.71197    0.47752   1.00
H2       0.04536    0.72630    0.46617   1.00
H2       0.22828    0.77936    0.47279   1.00
H2       0.19968    0.82120    0.46750   1.00
H2       0.19148    0.78928    0.50733   1.00
H2       0.15638    0.70337    0.44874   1.00
H2       0.20192    0.71396    0.46904   1.00
H2       0.15950    0.72213    0.49702   1.00
H2       0.10986    0.77045    0.52888   1.00
H2       0.07792    0.80895    0.54137   1.00
H2       0.06168    0.77271    0.51012   1.00
H2       0.14598    0.83788    0.52312   1.00
H2       0.14432    0.86360    0.47911   1.00
H2       0.10672    0.86933    0.51308   1.00
H2       0.14812    0.89061    0.32985   1.00
H2       0.14691    0.89132    0.27868   1.00
H2       0.13452    0.84842    0.30367   1.00
H2       0.21375    0.92011    0.28377   1.00
H2       0.21926    0.91278    0.33408   1.00
H2       0.25378    0.89362    0.30099   1.00
H2       0.31298    0.78345    0.35335   1.00
H2       0.27065    0.78268    0.38221   1.00
H2       0.27465    0.75111    0.34157   1.00
H2       0.27084    0.82933    0.26364   1.00
H2       0.31288    0.80963    0.28531   1.00
H2       0.27415    0.77840    0.27214   1.00
H2       0.12844    0.78433    0.32573   1.00
H2       0.14119    0.73537    0.31548   1.00
H2       0.15666    0.75727    0.35895   1.00
H2       0.17456    0.74654    0.25381   1.00
H2       0.15878    0.79553    0.25535   1.00
H2       0.20843    0.78423    0.24694   1.00
C4       0.68584    0.91781    0.41617   1.00
C4       0.64412    0.91755    0.41549   1.00
C3       0.70864    0.95190    0.41029   1.00
C3       0.62116    0.95053    0.40537   1.00
C3       0.70623    0.88204    0.42247   1.00
C3       0.62386    0.88256    0.42553   1.00
C2       0.77012    0.91557    0.41605   1.00
C2       0.55988    0.91443    0.41395   1.00
C3       0.74962    0.95081    0.41000   1.00
C3       0.58019    0.94914    0.40496   1.00
C3       0.74758    0.88167    0.42281   1.00
C3       0.58262    0.88131    0.42332   1.00
H1       0.69615    0.97855    0.40617   1.00
H1       0.63352    0.97646    0.39775   1.00
C5       0.68520    0.84689    0.42857   1.00
C5       0.64480    0.84892    0.43738   1.00
H1       0.76455    0.97634    0.40531   1.00
H1       0.56510    0.97399    0.39774   1.00
H1       0.76180    0.85600    0.42844   1.00
H1       0.56868    0.85538    0.42817   1.00
O3       0.70461    0.81168    0.42812   1.00
O3       0.62599    0.81761    0.45448   1.00
Si1      0.70747    0.78670    0.38764   1.00
Si1      0.61779    0.81853    0.50138   1.00
C6       0.74038    0.75087    0.40457   1.00
C6       0.66098    0.76659    0.37865   1.00
C6       0.72753    0.81355    0.34851   1.00
C6       0.63193    0.86051    0.52783   1.00
C6       0.56698    0.81277    0.50442   1.00
C6       0.63977    0.77664    0.52149   1.00
C6       0.77694    0.76645    0.42724   1.00
H2       0.72291    0.73545    0.42631   1.00
C6       0.75647    0.71844    0.37649   1.00
H2       0.64858    0.76533    0.40795   1.00
C6       0.63134    0.79072    0.35367   1.00
C6       0.65836    0.72399    0.36239   1.00
H2       0.75331    0.82671    0.36192   1.00
C6       0.74272    0.78987    0.31246   1.00
C6       0.70349    0.84795    0.32999   1.00
C6       0.67571    0.87327    0.52606   1.00
C6       0.60725    0.89882    0.52421   1.00
H2       0.62712    0.85141    0.55797   1.00
H2       0.55551    0.84030    0.49327   1.00
C6       0.54878    0.78039    0.47779   1.00
C6       0.54893    0.80714    0.54595   1.00
H2       0.61875    0.75339    0.51578   1.00
C6       0.67836    0.76269    0.50185   1.00
C6       0.64744    0.77589    0.56654   1.00
H2       0.76846    0.78481    0.45188   1.00
H2       0.79590    0.78363    0.40820   1.00
H2       0.79417    0.74243    0.43925   1.00
H2       0.76108    0.69131    0.39265   1.00
H2       0.73678    0.71197    0.35248   1.00
H2       0.78464    0.72630    0.36383   1.00
H2       0.60172    0.77936    0.35721   1.00
H2       0.63032    0.82120    0.36250   1.00
H2       0.63852    0.78928    0.32267   1.00
H2       0.67362    0.70337    0.38126   1.00
H2       0.62808    0.71396    0.36096   1.00
H2       0.67050    0.72213    0.33298   1.00
H2       0.72014    0.77045    0.30112   1.00
H2       0.75208    0.80895    0.28863   1.00
H2       0.76832    0.77271    0.31988   1.00
H2       0.68402    0.83788    0.30688   1.00
H2       0.68568    0.86360    0.35089   1.00
H2       0.72328    0.86933    0.31692   1.00
H2       0.68188    0.89061    0.50015   1.00
H2       0.68309    0.89132    0.55132   1.00
H2       0.69548    0.84842    0.52633   1.00
H2       0.61625    0.92011    0.54623   1.00
H2       0.61074    0.91278    0.49592   1.00
H2       0.57622    0.89362    0.52901   1.00
H2       0.51702    0.78345    0.47665   1.00
H2       0.55935    0.78268    0.44779   1.00
H2       0.55535    0.75111    0.48843   1.00
H2       0.55916    0.82933    0.56636   1.00
H2       0.51712    0.80963    0.54469   1.00
H2       0.55585    0.77840    0.55786   1.00
H2       0.70156    0.78433    0.50427   1.00
H2       0.68881    0.73537    0.51452   1.00
H2       0.67334    0.75727    0.47105   1.00
H2       0.65544    0.74654    0.57619   1.00
H2       0.67122    0.79553    0.57465   1.00
H2       0.62157    0.78423    0.58306   1.00
C4       0.41383    0.64416    0.41781   1.00
C4       0.41451    0.68588    0.41755   1.00
C3       0.41971    0.62136    0.45190   1.00
C3       0.42463    0.70884    0.45053   1.00
C3       0.40753    0.62377    0.38204   1.00
C3       0.40447    0.70614    0.38256   1.00
C2       0.41395    0.55988    0.41557   1.00
C2       0.41605    0.77012    0.41443   1.00
C3       0.42000    0.58038    0.45081   1.00
C3       0.42504    0.74981    0.44914   1.00
C3       0.40719    0.58242    0.38167   1.00
C3       0.40668    0.74738    0.38131   1.00
H1       0.42383    0.63385    0.47855   1.00
H1       0.43225    0.69648    0.47646   1.00
C5       0.40143    0.64480    0.34689   1.00
C5       0.39262    0.68520    0.34892   1.00
H1       0.42469    0.56545    0.47634   1.00
H1       0.43226    0.76490    0.47399   1.00
H1       0.40156    0.56820    0.35600   1.00
H1       0.40183    0.76132    0.35538   1.00
O3       0.40188    0.62539    0.31168   1.00
O3       0.37552    0.70401    0.31761   1.00
Si1      0.44236    0.62253    0.28670   1.00
Si1      0.32862    0.71221    0.31853   1.00
C6       0.42543    0.58962    0.25087   1.00
C6       0.45135    0.66902    0.26659   1.00
C6       0.48149    0.60247    0.31355   1.00
C6       0.30217    0.69807    0.36051   1.00
C6       0.32558    0.76302    0.31277   1.00
C6       0.30851    0.69023    0.27664   1.00
C6       0.40276    0.55306    0.26645   1.00
H2       0.40369    0.60709    0.23545   1.00
C6       0.45351    0.57353    0.21844   1.00
H2       0.42205    0.68142    0.26533   1.00
C6       0.47633    0.69866    0.29072   1.00
C6       0.46761    0.67164    0.22399   1.00
H2       0.46808    0.57669    0.32671   1.00
C6       0.51754    0.58728    0.28987   1.00
C6       0.50001    0.62651    0.34795   1.00
C6       0.30394    0.65429    0.37327   1.00
C6       0.30579    0.72275    0.39882   1.00
H2       0.27203    0.70288    0.35141   1.00
H2       0.33673    0.77449    0.34030   1.00
C6       0.35221    0.78122    0.28039   1.00
C6       0.28405    0.78107    0.30714   1.00
H2       0.31422    0.71125    0.25339   1.00
C6       0.32815    0.65164    0.26269   1.00
C6       0.26346    0.68256    0.27589   1.00
H2       0.37812    0.56154    0.28481   1.00
H2       0.42180    0.53410    0.28363   1.00
H2       0.39075    0.53583    0.24243   1.00
H2       0.43735    0.56892    0.19131   1.00
H2       0.47752    0.59322    0.21197   1.00
H2       0.46617    0.54536    0.22630   1.00
H2       0.47279    0.72828    0.27936   1.00
H2       0.46750    0.69968    0.32120   1.00
H2       0.50733    0.69148    0.28928   1.00
H2       0.44874    0.65638    0.20337   1.00
H2       0.46904    0.70192    0.21396   1.00
H2       0.49702    0.65950    0.22213   1.00
H2       0.52888    0.60986    0.27045   1.00
H2       0.54137    0.57792    0.30895   1.00
H2       0.51012    0.56168    0.27271   1.00
H2       0.52312    0.64598    0.33788   1.00
H2       0.47911    0.64432    0.36360   1.00
H2       0.51308    0.60672    0.36933   1.00
H2       0.32985    0.64812    0.39061   1.00
H2       0.27868    0.64691    0.39132   1.00
H2       0.30367    0.63452    0.34842   1.00
H2       0.28377    0.71375    0.42011   1.00
H2       0.33408    0.71926    0.41278   1.00
H2       0.30099    0.75378    0.39362   1.00
H2       0.35335    0.81298    0.28345   1.00
H2       0.38221    0.77065    0.28268   1.00
H2       0.34157    0.77465    0.25111   1.00
H2       0.26364    0.77084    0.32933   1.00
H2       0.28531    0.81288    0.30963   1.00
H2       0.27214    0.77415    0.27840   1.00
H2       0.32573    0.62844    0.28433   1.00
H2       0.31548    0.64119    0.23537   1.00
H2       0.35895    0.65666    0.25727   1.00
H2       0.25381    0.67456    0.24654   1.00
H2       0.25535    0.65878    0.29553   1.00
H2       0.24694    0.70843    0.28423   1.00
C4       0.41781    0.91383    0.14416   1.00
C4       0.41755    0.91451    0.18588   1.00
C3       0.45190    0.91971    0.12136   1.00
C3       0.45053    0.92463    0.20884   1.00
C3       0.38204    0.90753    0.12377   1.00
C3       0.38256    0.90447    0.20614   1.00
C2       0.41557    0.91395    0.05988   1.00
C2       0.41443    0.91605    0.27012   1.00
C3       0.45081    0.92000    0.08038   1.00
C3       0.44914    0.92504    0.24981   1.00
C3       0.38167    0.90719    0.08242   1.00
C3       0.38131    0.90668    0.24738   1.00
H1       0.47855    0.92383    0.13385   1.00
H1       0.47646    0.93225    0.19648   1.00
C5       0.34689    0.90143    0.14480   1.00
C5       0.34892    0.89262    0.18520   1.00
H1       0.47634    0.92469    0.06545   1.00
H1       0.47399    0.93226    0.26490   1.00
H1       0.35600    0.90156    0.06820   1.00
H1       0.35538    0.90183    0.26132   1.00
O3       0.31168    0.90188    0.12539   1.00
O3       0.31761    0.87552    0.20401   1.00
Si1      0.28670    0.94236    0.12253   1.00
Si1      0.31853    0.82862    0.21221   1.00
C6       0.25087    0.92543    0.08962   1.00
C6       0.26659    0.95135    0.16902   1.00
C6       0.31355    0.98149    0.10247   1.00
C6       0.36051    0.80217    0.19807   1.00
C6       0.31277    0.82558    0.26302   1.00
C6       0.27664    0.80851    0.19023   1.00
C6       0.26645    0.90276    0.05306   1.00
H2       0.23545    0.90369    0.10709   1.00
C6       0.21844    0.95351    0.07353   1.00
H2       0.26533    0.92205    0.18142   1.00
C6       0.29072    0.97633    0.19866   1.00
C6       0.22399    0.96761    0.17164   1.00
H2       0.32671    0.96808    0.07669   1.00
C6       0.28987    1.01754    0.08728   1.00
C6       0.34795    1.00001    0.12651   1.00
C6       0.37327    0.80394    0.15429   1.00
C6       0.39882    0.80579    0.22275   1.00
H2       0.35141    0.77203    0.20288   1.00
H2       0.34030    0.83673    0.27449   1.00
C6       0.28039    0.85221    0.28122   1.00
C6       0.30714    0.78405    0.28107   1.00
H2       0.25339    0.81422    0.21125   1.00
C6       0.26269    0.82815    0.15164   1.00
C6       0.27589    0.76346    0.18256   1.00
H2       0.28481    0.87812    0.06154   1.00
H2       0.28363    0.92180    0.03410   1.00
H2       0.24243    0.89075    0.03583   1.00
H2       0.19131    0.93735    0.06892   1.00
H2       0.21197    0.97752    0.09322   1.00
H2       0.22630    0.96617    0.04536   1.00
H2       0.27936    0.97279    0.22828   1.00
H2       0.32120    0.96750    0.19968   1.00
H2       0.28928    1.00733    0.19148   1.00
H2       0.20337    0.94874    0.15638   1.00
H2       0.21396    0.96904    0.20192   1.00
H2       0.22213    0.99702    0.15950   1.00
H2       0.27045    1.02888    0.10986   1.00
H2       0.30895    1.04137    0.07792   1.00
H2       0.27271    1.01012    0.06168   1.00
H2       0.33788    1.02312    0.14598   1.00
H2       0.36360    0.97911    0.14432   1.00
H2       0.36933    1.01308    0.10672   1.00
H2       0.39061    0.82985    0.14812   1.00
H2       0.39132    0.77868    0.14691   1.00
H2       0.34842    0.80367    0.13452   1.00
H2       0.42011    0.78377    0.21375   1.00
H2       0.41278    0.83408    0.21926   1.00
H2       0.39362    0.80099    0.25378   1.00
H2       0.28345    0.85335    0.31298   1.00
H2       0.28268    0.88221    0.27065   1.00
H2       0.25111    0.84157    0.27465   1.00
H2       0.32933    0.76364    0.27084   1.00
H2       0.30963    0.78531    0.31288   1.00
H2       0.27840    0.77214    0.27415   1.00
H2       0.28433    0.82573    0.12844   1.00
H2       0.23537    0.81548    0.14119   1.00
H2       0.25727    0.85895    0.15666   1.00
H2       0.24654    0.75381    0.17456   1.00
H2       0.29553    0.75535    0.15878   1.00
H2       0.28423    0.74694    0.20843   1.00
C4       0.91781    0.41617    0.68584   1.00
C4       0.91755    0.41549    0.64412   1.00
C3       0.95190    0.41029    0.70864   1.00
C3       0.95053    0.40537    0.62116   1.00
C3       0.88204    0.42247    0.70623   1.00
C3       0.88256    0.42553    0.62386   1.00
C2       0.91557    0.41605    0.77012   1.00
C2       0.91443    0.41395    0.55988   1.00
C3       0.95081    0.41000    0.74962   1.00
C3       0.94914    0.40496    0.58019   1.00
C3       0.88167    0.42281    0.74758   1.00
C3       0.88131    0.42332    0.58262   1.00
H1       0.97855    0.40617    0.69615   1.00
H1       0.97646    0.39775    0.63352   1.00
C5       0.84689    0.42857    0.68520   1.00
C5       0.84892    0.43738    0.64480   1.00
H1       0.97634    0.40531    0.76455   1.00
H1       0.97399    0.39774    0.56510   1.00
H1       0.85600    0.42844    0.76180   1.00
H1       0.85538    0.42817    0.56868   1.00
O3       0.81168    0.42812    0.70461   1.00
O3       0.81761    0.45448    0.62599   1.00
Si1      0.78670    0.38764    0.70747   1.00
Si1      0.81853    0.50138    0.61779   1.00
C6       0.75087    0.40457    0.74038   1.00
C6       0.76659    0.37865    0.66098   1.00
C6       0.81355    0.34851    0.72753   1.00
C6       0.86051    0.52783    0.63193   1.00
C6       0.81277    0.50442    0.56698   1.00
C6       0.77664    0.52149    0.63977   1.00
C6       0.76645    0.42724    0.77694   1.00
H2       0.73545    0.42631    0.72291   1.00
C6       0.71844    0.37649    0.75647   1.00
H2       0.76533    0.40795    0.64858   1.00
C6       0.79072    0.35367    0.63134   1.00
C6       0.72399    0.36239    0.65836   1.00
H2       0.82671    0.36192    0.75331   1.00
C6       0.78987    0.31246    0.74272   1.00
C6       0.84795    0.32999    0.70349   1.00
C6       0.87327    0.52606    0.67571   1.00
C6       0.89882    0.52421    0.60725   1.00
H2       0.85141    0.55797    0.62712   1.00
H2       0.84030    0.49327    0.55551   1.00
C6       0.78039    0.47779    0.54878   1.00
C6       0.80714    0.54595    0.54893   1.00
H2       0.75339    0.51578    0.61875   1.00
C6       0.76269    0.50185    0.67836   1.00
C6       0.77589    0.56654    0.64744   1.00
H2       0.78481    0.45188    0.76846   1.00
H2       0.78363    0.40820    0.79590   1.00
H2       0.74243    0.43925    0.79417   1.00
H2       0.69131    0.39265    0.76108   1.00
H2       0.71197    0.35248    0.73678   1.00
H2       0.72630    0.36383    0.78464   1.00
H2       0.77936    0.35721    0.60172   1.00
H2       0.82120    0.36250    0.63032   1.00
H2       0.78928    0.32267    0.63852   1.00
H2       0.70337    0.38126    0.67362   1.00
H2       0.71396    0.36096    0.62808   1.00
H2       0.72213    0.33298    0.67050   1.00
H2       0.77045    0.30112    0.72014   1.00
H2       0.80895    0.28863    0.75208   1.00
H2       0.77271    0.31988    0.76832   1.00
H2       0.83788    0.30688    0.68402   1.00
H2       0.86360    0.35089    0.68568   1.00
H2       0.86933    0.31692    0.72328   1.00
H2       0.89061    0.50015    0.68188   1.00
H2       0.89132    0.55132    0.68309   1.00
H2       0.84842    0.52633    0.69548   1.00
H2       0.92011    0.54623    0.61625   1.00
H2       0.91278    0.49592    0.61074   1.00
H2       0.89362    0.52901    0.57622   1.00
H2       0.78345    0.47665    0.51702   1.00
H2       0.78268    0.44779    0.55935   1.00
H2       0.75111    0.48843    0.55535   1.00
H2       0.82933    0.56636    0.55916   1.00
H2       0.80963    0.54469    0.51712   1.00
H2       0.77840    0.55786    0.55585   1.00
H2       0.78433    0.50427    0.70156   1.00
H2       0.73537    0.51452    0.68881   1.00
H2       0.75727    0.47105    0.67334   1.00
H2       0.74654    0.57619    0.65544   1.00
H2       0.79553    0.57465    0.67122   1.00
H2       0.78423    0.58306    0.62157   1.00
C4       0.91617    0.68584    0.41781   1.00
C4       0.91549    0.64412    0.41755   1.00
C3       0.91029    0.70864    0.45190   1.00
C3       0.90537    0.62116    0.45053   1.00
C3       0.92247    0.70623    0.38204   1.00
C3       0.92553    0.62386    0.38256   1.00
C2       0.91605    0.77012    0.41557   1.00
C2       0.91395    0.55988    0.41443   1.00
C3       0.91000    0.74962    0.45081   1.00
C3       0.90496    0.58019    0.44914   1.00
C3       0.92281    0.74758    0.38167   1.00
C3       0.92332    0.58262    0.38131   1.00
H1       0.90617    0.69615    0.47855   1.00
H1       0.89775    0.63352    0.47646   1.00
C5       0.92857    0.68520    0.34689   1.00
C5       0.93738    0.64480    0.34892   1.00
H1       0.90531    0.76455    0.47634   1.00
H1       0.89774    0.56510    0.47399   1.00
H1       0.92844    0.76180    0.35600   1.00
H1       0.92817    0.56868    0.35538   1.00
O3       0.92812    0.70461    0.31168   1.00
O3       0.95448    0.62599    0.31761   1.00
Si1      0.88764    0.70747    0.28670   1.00
Si1      1.00138    0.61779    0.31853   1.00
C6       0.90457    0.74038    0.25087   1.00
C6       0.87865    0.66098    0.26659   1.00
C6       0.84851    0.72753    0.31355   1.00
C6       1.02783    0.63193    0.36051   1.00
C6       1.00442    0.56698    0.31277   1.00
C6       1.02149    0.63977    0.27664   1.00
C6       0.92724    0.77694    0.26645   1.00
H2       0.92631    0.72291    0.23545   1.00
C6       0.87649    0.75647    0.21844   1.00
H2       0.90795    0.64858    0.26533   1.00
C6       0.85367    0.63134    0.29072   1.00
C6       0.86239    0.65836    0.22399   1.00
H2       0.86192    0.75331    0.32671   1.00
C6       0.81246    0.74272    0.28987   1.00
C6       0.82999    0.70349    0.34795   1.00
C6       1.02606    0.67571    0.37327   1.00
C6       1.02421    0.60725    0.39882   1.00
H2       1.05797    0.62712    0.35141   1.00
H2       0.99327    0.55551    0.34030   1.00
C6       0.97779    0.54878    0.28039   1.00
C6       1.04595    0.54893    0.30714   1.00
H2       1.01578    0.61875    0.25339   1.00
C6       1.00185    0.67836    0.26269   1.00
C6       1.06654    0.64744    0.27589   1.00
H2       0.95188    0.76846    0.28481   1.00
H2       0.90820    0.79590    0.28363   1.00
H2       0.93925    0.79417    0.24243   1.00
H2       0.89265    0.76108    0.19131   1.00
H2       0.85248    0.73678    0.21197   1.00
H2       0.86383    0.78464    0.22630   1.00
H2       0.85721    0.60172    0.27936   1.00
H2       0.86250    0.63032    0.32120   1.00
H2       0.82267    0.63852    0.28928   1.00
H2       0.88126    0.67362    0.20337   1.00
H2       0.86096    0.62808    0.21396   1.00
H2       0.83298    0.67050    0.22213   1.00
H2       0.80112    0.72014    0.27045   1.00
H2       0.78863    0.75208    0.30895   1.00
H2       0.81988    0.76832    0.27271   1.00
H2       0.80688    0.68402    0.33788   1.00
H2       0.85089    0.68568    0.36360   1.00
H2       0.81692    0.72328    0.36933   1.00
H2       1.00015    0.68188    0.39061   1.00
H2       1.05132    0.68309    0.39132   1.00
H2       1.02633    0.69548    0.34842   1.00
H2       1.04623    0.61625    0.42011   1.00
H2       0.99592    0.61074    0.41278   1.00
H2       1.02901    0.57622    0.39362   1.00
H2       0.97665    0.51702    0.28345   1.00
H2       0.94779    0.55935    0.28268   1.00
H2       0.98843    0.55535    0.25111   1.00
H2       1.06636    0.55916    0.32933   1.00
H2       1.04469    0.51712    0.30963   1.00
H2       1.05786    0.55585    0.27840   1.00
H2       1.00427    0.70156    0.28433   1.00
H2       1.01452    0.68881    0.23537   1.00
H2       0.97105    0.67334    0.25727   1.00
H2       1.07619    0.65544    0.24654   1.00
H2       1.07465    0.67122    0.29553   1.00
H2       1.08306    0.62157    0.28423   1.00
C4       0.64416    0.41781    0.41383   1.00
C4       0.68588    0.41755    0.41451   1.00
C3       0.62136    0.45190    0.41971   1.00
C3       0.70884    0.45053    0.42463   1.00
C3       0.62377    0.38204    0.40753   1.00
C3       0.70614    0.38256    0.40447   1.00
C2       0.55988    0.41557    0.41395   1.00
C2       0.77012    0.41443    0.41605   1.00
C3       0.58038    0.45081    0.42000   1.00
C3       0.74981    0.44914    0.42504   1.00
C3       0.58242    0.38167    0.40719   1.00
C3       0.74738    0.38131    0.40668   1.00
H1       0.63385    0.47855    0.42383   1.00
H1       0.69648    0.47646    0.43225   1.00
C5       0.64480    0.34689    0.40143   1.00
C5       0.68520    0.34892    0.39262   1.00
H1       0.56545    0.47634    0.42469   1.00
H1       0.76490    0.47399    0.43226   1.00
H1       0.56820    0.35600    0.40156   1.00
H1       0.76132    0.35538    0.40183   1.00
O3       0.62539    0.31168    0.40188   1.00
O3       0.70401    0.31761    0.37552   1.00
Si1      0.62253    0.28670    0.44236   1.00
Si1      0.71221    0.31853    0.32862   1.00
C6       0.58962    0.25087    0.42543   1.00
C6       0.66902    0.26659    0.45135   1.00
C6       0.60247    0.31355    0.48149   1.00
C6       0.69807    0.36051    0.30217   1.00
C6       0.76302    0.31277    0.32558   1.00
C6       0.69023    0.27664    0.30851   1.00
C6       0.55306    0.26645    0.40276   1.00
H2       0.60709    0.23545    0.40369   1.00
C6       0.57353    0.21844    0.45351   1.00
H2       0.68142    0.26533    0.42205   1.00
C6       0.69866    0.29072    0.47633   1.00
C6       0.67164    0.22399    0.46761   1.00
H2       0.57669    0.32671    0.46808   1.00
C6       0.58728    0.28987    0.51754   1.00
C6       0.62651    0.34795    0.50001   1.00
C6       0.65429    0.37327    0.30394   1.00
C6       0.72275    0.39882    0.30579   1.00
H2       0.70288    0.35141    0.27203   1.00
H2       0.77449    0.34030    0.33673   1.00
C6       0.78122    0.28039    0.35221   1.00
C6       0.78107    0.30714    0.28405   1.00
H2       0.71125    0.25339    0.31422   1.00
C6       0.65164    0.26269    0.32815   1.00
C6       0.68256    0.27589    0.26346   1.00
H2       0.56154    0.28481    0.37812   1.00
H2       0.53410    0.28363    0.42180   1.00
H2       0.53583    0.24243    0.39075   1.00
H2       0.56892    0.19131    0.43735   1.00
H2       0.59322    0.21197    0.47752   1.00
H2       0.54536    0.22630    0.46617   1.00
H2       0.72828    0.27936    0.47279   1.00
H2       0.69968    0.32120    0.46750   1.00
H2       0.69148    0.28928    0.50733   1.00
H2       0.65638    0.20337    0.44874   1.00
H2       0.70192    0.21396    0.46904   1.00
H2       0.65950    0.22213    0.49702   1.00
H2       0.60986    0.27045    0.52888   1.00
H2       0.57792    0.30895    0.54137   1.00
H2       0.56168    0.27271    0.51012   1.00
H2       0.64598    0.33788    0.52312   1.00
H2       0.64432    0.36360    0.47911   1.00
H2       0.60672    0.36933    0.51308   1.00
H2       0.64812    0.39061    0.32985   1.00
H2       0.64691    0.39132    0.27868   1.00
H2       0.63452    0.34842    0.30367   1.00
H2       0.71375    0.42011    0.28377   1.00
H2       0.71926    0.41278    0.33408   1.00
H2       0.75378    0.39362    0.30099   1.00
H2       0.81298    0.28345    0.35335   1.00
H2       0.77065    0.28268    0.38221   1.00
H2       0.77465    0.25111    0.34157   1.00
H2       0.77084    0.32933    0.26364   1.00
H2       0.81288    0.30963    0.28531   1.00
H2       0.77415    0.27840    0.27214   1.00
H2       0.62844    0.28433    0.32573   1.00
H2       0.64119    0.23537    0.31548   1.00
H2       0.65666    0.25727    0.35895   1.00
H2       0.67456    0.24654    0.25381   1.00
H2       0.65878    0.29553    0.25535   1.00
H2       0.70843    0.28423    0.24694   1.00
C4       1.18584    0.41781    0.41617   1.00
C4       1.14412    0.41755    0.41549   1.00
C3       1.20864    0.45190    0.41029   1.00
C3       1.12116    0.45053    0.40537   1.00
C3       1.20623    0.38204    0.42247   1.00
C3       1.12386    0.38256    0.42553   1.00
C2       1.27012    0.41557    0.41605   1.00
C2       1.05988    0.41443    0.41395   1.00
C3       1.24962    0.45081    0.41000   1.00
C3       1.08019    0.44914    0.40496   1.00
C3       1.24758    0.38167    0.42281   1.00
C3       1.08262    0.38131    0.42332   1.00
H1       1.19615    0.47855    0.40617   1.00
H1       1.13352    0.47646    0.39775   1.00
C5       1.18520    0.34689    0.42857   1.00
C5       1.14480    0.34892    0.43738   1.00
H1       1.26455    0.47634    0.40531   1.00
H1       1.06510    0.47399    0.39774   1.00
H1       1.26180    0.35600    0.42844   1.00
H1       1.06868    0.35538    0.42817   1.00
O3       1.20461    0.31168    0.42812   1.00
O3       1.12599    0.31761    0.45448   1.00
Si1      1.20747    0.28670    0.38764   1.00
Si1      1.11779    0.31853    0.50138   1.00
C6       1.24038    0.25087    0.40457   1.00
C6       1.16098    0.26659    0.37865   1.00
C6       1.22753    0.31355    0.34851   1.00
C6       1.13193    0.36051    0.52783   1.00
C6       1.06698    0.31277    0.50442   1.00
C6       1.13977    0.27664    0.52149   1.00
C6       1.27694    0.26645    0.42724   1.00
H2       1.22291    0.23545    0.42631   1.00
C6       1.25647    0.21844    0.37649   1.00
H2       1.14858    0.26533    0.40795   1.00
C6       1.13134    0.29072    0.35367   1.00
C6       1.15836    0.22399    0.36239   1.00
H2       1.25331    0.32671    0.36192   1.00
C6       1.24272    0.28987    0.31246   1.00
C6       1.20349    0.34795    0.32999   1.00
C6       1.17571    0.37327    0.52606   1.00
C6       1.10725    0.39882    0.52421   1.00
H2       1.12712    0.35141    0.55797   1.00
H2       1.05551    0.34030    0.49327   1.00
C6       1.04878    0.28039    0.47779   1.00
C6       1.04893    0.30714    0.54595   1.00
H2       1.11875    0.25339    0.51578   1.00
C6       1.17836    0.26269    0.50185   1.00
C6       1.14744    0.27589    0.56654   1.00
H2       1.26846    0.28481    0.45188   1.00
H2       1.29590    0.28363    0.40820   1.00
H2       1.29417    0.24243    0.43925   1.00
H2       1.26108    0.19131    0.39265   1.00
H2       1.23678    0.21197    0.35248   1.00
H2       1.28464    0.22630    0.36383   1.00
H2       1.10172    0.27936    0.35721   1.00
H2       1.13032    0.32120    0.36250   1.00
H2       1.13852    0.28928    0.32267   1.00
H2       1.17362    0.20337    0.38126   1.00
H2       1.12808    0.21396    0.36096   1.00
H2       1.17050    0.22213    0.33298   1.00
H2       1.22014    0.27045    0.30112   1.00
H2       1.25208    0.30895    0.28863   1.00
H2       1.26832    0.27271    0.31988   1.00
H2       1.18402    0.33788    0.30688   1.00
H2       1.18568    0.36360    0.35089   1.00
H2       1.22328    0.36933    0.31692   1.00
H2       1.18188    0.39061    0.50015   1.00
H2       1.18309    0.39132    0.55132   1.00
H2       1.19548    0.34842    0.52633   1.00
H2       1.11625    0.42011    0.54623   1.00
H2       1.11074    0.41278    0.49592   1.00
H2       1.07622    0.39362    0.52901   1.00
H2       1.01702    0.28345    0.47665   1.00
H2       1.05935    0.28268    0.44779   1.00
H2       1.05535    0.25111    0.48843   1.00
H2       1.05916    0.32933    0.56636   1.00
H2       1.01712    0.30963    0.54469   1.00
H2       1.05585    0.27840    0.55786   1.00
H2       1.20156    0.28433    0.50427   1.00
H2       1.18881    0.23537    0.51452   1.00
H2       1.17334    0.25727    0.47105   1.00
H2       1.15544    0.24654    0.57619   1.00
H2       1.17122    0.29553    0.57465   1.00
H2       1.12157    0.28423    0.58306   1.00
C4       0.91383    0.14416    0.41781   1.00
C4       0.91451    0.18588    0.41755   1.00
C3       0.91971    0.12136    0.45190   1.00
C3       0.92463    0.20884    0.45053   1.00
C3       0.90753    0.12377    0.38204   1.00
C3       0.90447    0.20614    0.38256   1.00
C2       0.91395    0.05988    0.41557   1.00
C2       0.91605    0.27012    0.41443   1.00
C3       0.92000    0.08038    0.45081   1.00
C3       0.92504    0.24981    0.44914   1.00
C3       0.90719    0.08242    0.38167   1.00
C3       0.90668    0.24738    0.38131   1.00
H1       0.92383    0.13385    0.47855   1.00
H1       0.93225    0.19648    0.47646   1.00
C5       0.90143    0.14480    0.34689   1.00
C5       0.89262    0.18520    0.34892   1.00
H1       0.92469    0.06545    0.47634   1.00
H1       0.93226    0.26490    0.47399   1.00
H1       0.90156    0.06820    0.35600   1.00
H1       0.90183    0.26132    0.35538   1.00
O3       0.90188    0.12539    0.31168   1.00
O3       0.87552    0.20401    0.31761   1.00
Si1      0.94236    0.12253    0.28670   1.00
Si1      0.82862    0.21221    0.31853   1.00
C6       0.92543    0.08962    0.25087   1.00
C6       0.95135    0.16902    0.26659   1.00
C6       0.98149    0.10247    0.31355   1.00
C6       0.80217    0.19807    0.36051   1.00
C6       0.82558    0.26302    0.31277   1.00
C6       0.80851    0.19023    0.27664   1.00
C6       0.90276    0.05306    0.26645   1.00
H2       0.90369    0.10709    0.23545   1.00
C6       0.95351    0.07353    0.21844   1.00
H2       0.92205    0.18142    0.26533   1.00
C6       0.97633    0.19866    0.29072   1.00
C6       0.96761    0.17164    0.22399   1.00
H2       0.96808    0.07669    0.32671   1.00
C6       1.01754    0.08728    0.28987   1.00
C6       1.00001    0.12651    0.34795   1.00
C6       0.80394    0.15429    0.37327   1.00
C6       0.80579    0.22275    0.39882   1.00
H2       0.77203    0.20288    0.35141   1.00
H2       0.83673    0.27449    0.34030   1.00
C6       0.85221    0.28122    0.28039   1.00
C6       0.78405    0.28107    0.30714   1.00
H2       0.81422    0.21125    0.25339   1.00
C6       0.82815    0.15164    0.26269   1.00
C6       0.76346    0.18256    0.27589   1.00
H2       0.87812    0.06154    0.28481   1.00
H2       0.92180    0.03410    0.28363   1.00
H2       0.89075    0.03583    0.24243   1.00
H2       0.93735    0.06892    0.19131   1.00
H2       0.97752    0.09322    0.21197   1.00
H2       0.96617    0.04536    0.22630   1.00
H2       0.97279    0.22828    0.27936   1.00
H2       0.96750    0.19968    0.32120   1.00
H2       1.00733    0.19148    0.28928   1.00
H2       0.94874    0.15638    0.20337   1.00
H2       0.96904    0.20192    0.21396   1.00
H2       0.99702    0.15950    0.22213   1.00
H2       1.02888    0.10986    0.27045   1.00
H2       1.04137    0.07792    0.30895   1.00
H2       1.01012    0.06168    0.27271   1.00
H2       1.02312    0.14598    0.33788   1.00
H2       0.97911    0.14432    0.36360   1.00
H2       1.01308    0.10672    0.36933   1.00
H2       0.82985    0.14812    0.39061   1.00
H2       0.77868    0.14691    0.39132   1.00
H2       0.80367    0.13452    0.34842   1.00
H2       0.78377    0.21375    0.42011   1.00
H2       0.83408    0.21926    0.41278   1.00
H2       0.80099    0.25378    0.39362   1.00
H2       0.85335    0.31298    0.28345   1.00
H2       0.88221    0.27065    0.28268   1.00
H2       0.84157    0.27465    0.25111   1.00
H2       0.76364    0.27084    0.32933   1.00
H2       0.78531    0.31288    0.30963   1.00
H2       0.77214    0.27415    0.27840   1.00
H2       0.82573    0.12844    0.28433   1.00
H2       0.81548    0.14119    0.23537   1.00
H2       0.85895    0.15666    0.25727   1.00
H2       0.75381    0.17456    0.24654   1.00
H2       0.75535    0.15878    0.29553   1.00
H2       0.74694    0.20843    0.28423   1.00
C4       0.91781    0.41383    0.14416   1.00
C4       0.91755    0.41451    0.18588   1.00
C3       0.95190    0.41971    0.12136   1.00
C3       0.95053    0.42463    0.20884   1.00
C3       0.88204    0.40753    0.12377   1.00
C3       0.88256    0.40447    0.20614   1.00
C2       0.91557    0.41395    0.05988   1.00
C2       0.91443    0.41605    0.27012   1.00
C3       0.95081    0.42000    0.08038   1.00
C3       0.94914    0.42504    0.24981   1.00
C3       0.88167    0.40719    0.08242   1.00
C3       0.88131    0.40668    0.24738   1.00
H1       0.97855    0.42383    0.13385   1.00
H1       0.97646    0.43225    0.19648   1.00
C5       0.84689    0.40143    0.14480   1.00
C5       0.84892    0.39262    0.18520   1.00
H1       0.97634    0.42469    0.06545   1.00
H1       0.97399    0.43226    0.26490   1.00
H1       0.85600    0.40156    0.06820   1.00
H1       0.85538    0.40183    0.26132   1.00
O3       0.81168    0.40188    0.12539   1.00
O3       0.81761    0.37552    0.20401   1.00
Si1      0.78670    0.44236    0.12253   1.00
Si1      0.81853    0.32862    0.21221   1.00
C6       0.75087    0.42543    0.08962   1.00
C6       0.76659    0.45135    0.16902   1.00
C6       0.81355    0.48149    0.10247   1.00
C6       0.86051    0.30217    0.19807   1.00
C6       0.81277    0.32558    0.26302   1.00
C6       0.77664    0.30851    0.19023   1.00
C6       0.76645    0.40276    0.05306   1.00
H2       0.73545    0.40369    0.10709   1.00
C6       0.71844    0.45351    0.07353   1.00
H2       0.76533    0.42205    0.18142   1.00
C6       0.79072    0.47633    0.19866   1.00
C6       0.72399    0.46761    0.17164   1.00
H2       0.82671    0.46808    0.07669   1.00
C6       0.78987    0.51754    0.08728   1.00
C6       0.84795    0.50001    0.12651   1.00
C6       0.87327    0.30394    0.15429   1.00
C6       0.89882    0.30579    0.22275   1.00
H2       0.85141    0.27203    0.20288   1.00
H2       0.84030    0.33673    0.27449   1.00
C6       0.78039    0.35221    0.28122   1.00
C6       0.80714    0.28405    0.28107   1.00
H2       0.75339    0.31422    0.21125   1.00
C6       0.76269    0.32815    0.15164   1.00
C6       0.77589    0.26346    0.18256   1.00
H2       0.78481    0.37812    0.06154   1.00
H2       0.78363    0.42180    0.03410   1.00
H2       0.74243    0.39075    0.03583   1.00
H2       0.69131    0.43735    0.06892   1.00
H2       0.71197    0.47752    0.09322   1.00
H2       0.72630    0.46617    0.04536   1.00
H2       0.77936    0.47279    0.22828   1.00
H2       0.82120    0.46750    0.19968   1.00
H2       0.78928    0.50733    0.19148   1.00
H2       0.70337    0.44874    0.15638   1.00
H2       0.71396    0.46904    0.20192   1.00
H2       0.72213    0.49702    0.15950   1.00
H2       0.77045    0.52888    0.10986   1.00
H2       0.80895    0.54137    0.07792   1.00
H2       0.77271    0.51012    0.06168   1.00
H2       0.83788    0.52312    0.14598   1.00
H2       0.86360    0.47911    0.14432   1.00
H2       0.86933    0.51308    0.10672   1.00
H2       0.89061    0.32985    0.14812   1.00
H2       0.89132    0.27868    0.14691   1.00
H2       0.84842    0.30367    0.13452   1.00
H2       0.92011    0.28377    0.21375   1.00
H2       0.91278    0.33408    0.21926   1.00
H2       0.89362    0.30099    0.25378   1.00
H2       0.78345    0.35335    0.31298   1.00
H2       0.78268    0.38221    0.27065   1.00
H2       0.75111    0.34157    0.27465   1.00
H2       0.82933    0.26364    0.27084   1.00
H2       0.80963    0.28531    0.31288   1.00
H2       0.77840    0.27214    0.27415   1.00
H2       0.78433    0.32573    0.12844   1.00
H2       0.73537    0.31548    0.14119   1.00
H2       0.75727    0.35895    0.15666   1.00
H2       0.74654    0.25381    0.17456   1.00
H2       0.79553    0.25535    0.15878   1.00
H2       0.78423    0.24694    0.20843   1.00
