data_IRMOF10_SG202_interpen_Ligand1cp_label_l.

_audit_creation_method             'generated by an auxiliary program of Tobunporous'

_symmetry_space_group_name_H-M     'P 1'
_symmetry_Int_Tables_number        1
_symmetry_cell_setting             triclinic

_cell_length_a                    34.2800
_cell_length_b                    34.2800
_cell_length_c                    34.2800
_cell_angle_alpha                 90.0000
_cell_angle_beta                  90.0000
_cell_angle_gamma                 90.0000

loop_
_atom_site_label
_atom_site_fract_x
_atom_site_fract_y
_atom_site_fract_z
_atom_site_occupancy
O1       0.75000    0.75000    0.75000   1.00
Zn1      0.71720    0.78280    0.78280   1.00
Zn1      0.78280    0.71720    0.78280   1.00
Zn1      0.78280    0.78280    0.71720   1.00
Zn1      0.71720    0.71720    0.71720   1.00
O2       0.72650    0.77350    0.83820   1.00
O2       0.72650    0.83820    0.77350   1.00
O2       0.66180    0.77350    0.77350   1.00
O2       0.77350    0.72650    0.83820   1.00
O2       0.83820    0.72650    0.77350   1.00
O2       0.77350    0.66180    0.77350   1.00
O2       0.77350    0.83820    0.72650   1.00
O2       0.83820    0.77350    0.72650   1.00
O2       0.77350    0.77350    0.66180   1.00
O2       0.66180    0.72650    0.72650   1.00
O2       0.72650    0.66180    0.72650   1.00
O2       0.72650    0.72650    0.66180   1.00
C1       0.75000    0.75000    0.85520   1.00
C1       0.75000    0.85520    0.75000   1.00
C1       0.64480    0.75000    0.75000   1.00
C1       0.85520    0.75000    0.75000   1.00
C1       0.75000    0.64480    0.75000   1.00
C1       0.75000    0.75000    0.64480   1.00
O1       0.25000    0.25000    0.75000   1.00
Zn1      0.21720    0.28280    0.78280   1.00
Zn1      0.28280    0.21720    0.78280   1.00
Zn1      0.28280    0.28280    0.71720   1.00
Zn1      0.21720    0.21720    0.71720   1.00
O2       0.22650    0.27350    0.83820   1.00
O2       0.22650    0.33820    0.77350   1.00
O2       0.16180    0.27350    0.77350   1.00
O2       0.27350    0.22650    0.83820   1.00
O2       0.33820    0.22650    0.77350   1.00
O2       0.27350    0.16180    0.77350   1.00
O2       0.27350    0.33820    0.72650   1.00
O2       0.33820    0.27350    0.72650   1.00
O2       0.27350    0.27350    0.66180   1.00
O2       0.16180    0.22650    0.72650   1.00
O2       0.22650    0.16180    0.72650   1.00
O2       0.22650    0.22650    0.66180   1.00
C1       0.25000    0.25000    0.85520   1.00
C1       0.25000    0.35520    0.75000   1.00
C1       0.14480    0.25000    0.75000   1.00
C1       0.35520    0.25000    0.75000   1.00
C1       0.25000    0.14480    0.75000   1.00
C1       0.25000    0.25000    0.64480   1.00
O1       0.25000    0.75000    0.25000   1.00
Zn1      0.21720    0.78280    0.28280   1.00
Zn1      0.28280    0.71720    0.28280   1.00
Zn1      0.28280    0.78280    0.21720   1.00
Zn1      0.21720    0.71720    0.21720   1.00
O2       0.22650    0.77350    0.33820   1.00
O2       0.22650    0.83820    0.27350   1.00
O2       0.16180    0.77350    0.27350   1.00
O2       0.27350    0.72650    0.33820   1.00
O2       0.33820    0.72650    0.27350   1.00
O2       0.27350    0.66180    0.27350   1.00
O2       0.27350    0.83820    0.22650   1.00
O2       0.33820    0.77350    0.22650   1.00
O2       0.27350    0.77350    0.16180   1.00
O2       0.16180    0.72650    0.22650   1.00
O2       0.22650    0.66180    0.22650   1.00
O2       0.22650    0.72650    0.16180   1.00
C1       0.25000    0.75000    0.35520   1.00
C1       0.25000    0.85520    0.25000   1.00
C1       0.14480    0.75000    0.25000   1.00
C1       0.35520    0.75000    0.25000   1.00
C1       0.25000    0.64480    0.25000   1.00
C1       0.25000    0.75000    0.14480   1.00
O1       0.75000    0.25000    0.25000   1.00
Zn1      0.71720    0.28280    0.28280   1.00
Zn1      0.78280    0.21720    0.28280   1.00
Zn1      0.78280    0.28280    0.21720   1.00
Zn1      0.71720    0.21720    0.21720   1.00
O2       0.72650    0.27350    0.33820   1.00
O2       0.72650    0.33820    0.27350   1.00
O2       0.66180    0.27350    0.27350   1.00
O2       0.77350    0.22650    0.33820   1.00
O2       0.83820    0.22650    0.27350   1.00
O2       0.77350    0.16180    0.27350   1.00
O2       0.77350    0.33820    0.22650   1.00
O2       0.83820    0.27350    0.22650   1.00
O2       0.77350    0.27350    0.16180   1.00
O2       0.66180    0.22650    0.22650   1.00
O2       0.72650    0.16180    0.22650   1.00
O2       0.72650    0.22650    0.16180   1.00
C1       0.75000    0.25000    0.35520   1.00
C1       0.75000    0.35520    0.25000   1.00
C1       0.64480    0.25000    0.25000   1.00
C1       0.85520    0.25000    0.25000   1.00
C1       0.75000    0.14480    0.25000   1.00
C1       0.75000    0.25000    0.14480   1.00
O1       0.25000    0.25000    0.25000   1.00
Zn1      0.28280    0.21720    0.21720   1.00
Zn1      0.21720    0.28280    0.21720   1.00
Zn1      0.21720    0.21720    0.28280   1.00
Zn1      0.28280    0.28280    0.28280   1.00
O2       0.27350    0.22650    0.16180   1.00
O2       0.27350    0.16180    0.22650   1.00
O2       0.33820    0.22650    0.22650   1.00
O2       0.22650    0.27350    0.16180   1.00
O2       0.16180    0.27350    0.22650   1.00
O2       0.22650    0.33820    0.22650   1.00
O2       0.22650    0.16180    0.27350   1.00
O2       0.16180    0.22650    0.27350   1.00
O2       0.22650    0.22650    0.33820   1.00
O2       0.33820    0.27350    0.27350   1.00
O2       0.27350    0.33820    0.27350   1.00
O2       0.27350    0.27350    0.33820   1.00
C1       0.25000    0.25000    0.14480   1.00
C1       0.25000    0.14480    0.25000   1.00
C1       0.35520    0.25000    0.25000   1.00
C1       0.14480    0.25000    0.25000   1.00
C1       0.25000    0.35520    0.25000   1.00
C1       0.25000    0.25000    0.35520   1.00
O1       0.75000    0.75000    0.25000   1.00
Zn1      0.78280    0.71720    0.21720   1.00
Zn1      0.71720    0.78280    0.21720   1.00
Zn1      0.71720    0.71720    0.28280   1.00
Zn1      0.78280    0.78280    0.28280   1.00
O2       0.77350    0.72650    0.16180   1.00
O2       0.77350    0.66180    0.22650   1.00
O2       0.83820    0.72650    0.22650   1.00
O2       0.72650    0.77350    0.16180   1.00
O2       0.66180    0.77350    0.22650   1.00
O2       0.72650    0.83820    0.22650   1.00
O2       0.72650    0.66180    0.27350   1.00
O2       0.66180    0.72650    0.27350   1.00
O2       0.72650    0.72650    0.33820   1.00
O2       0.83820    0.77350    0.27350   1.00
O2       0.77350    0.83820    0.27350   1.00
O2       0.77350    0.77350    0.33820   1.00
C1       0.75000    0.75000    0.14480   1.00
C1       0.75000    0.64480    0.25000   1.00
C1       0.85520    0.75000    0.25000   1.00
C1       0.64480    0.75000    0.25000   1.00
C1       0.75000    0.85520    0.25000   1.00
C1       0.75000    0.75000    0.35520   1.00
O1       0.75000    0.25000    0.75000   1.00
Zn1      0.78280    0.21720    0.71720   1.00
Zn1      0.71720    0.28280    0.71720   1.00
Zn1      0.71720    0.21720    0.78280   1.00
Zn1      0.78280    0.28280    0.78280   1.00
O2       0.77350    0.22650    0.66180   1.00
O2       0.77350    0.16180    0.72650   1.00
O2       0.83820    0.22650    0.72650   1.00
O2       0.72650    0.27350    0.66180   1.00
O2       0.66180    0.27350    0.72650   1.00
O2       0.72650    0.33820    0.72650   1.00
O2       0.72650    0.16180    0.77350   1.00
O2       0.66180    0.22650    0.77350   1.00
O2       0.72650    0.22650    0.83820   1.00
O2       0.83820    0.27350    0.77350   1.00
O2       0.77350    0.33820    0.77350   1.00
O2       0.77350    0.27350    0.83820   1.00
C1       0.75000    0.25000    0.64480   1.00
C1       0.75000    0.14480    0.75000   1.00
C1       0.85520    0.25000    0.75000   1.00
C1       0.64480    0.25000    0.75000   1.00
C1       0.75000    0.35520    0.75000   1.00
C1       0.75000    0.25000    0.85520   1.00
O1       0.25000    0.75000    0.75000   1.00
Zn1      0.28280    0.71720    0.71720   1.00
Zn1      0.21720    0.78280    0.71720   1.00
Zn1      0.21720    0.71720    0.78280   1.00
Zn1      0.28280    0.78280    0.78280   1.00
O2       0.27350    0.72650    0.66180   1.00
O2       0.27350    0.66180    0.72650   1.00
O2       0.33820    0.72650    0.72650   1.00
O2       0.22650    0.77350    0.66180   1.00
O2       0.16180    0.77350    0.72650   1.00
O2       0.22650    0.83820    0.72650   1.00
O2       0.22650    0.66180    0.77350   1.00
O2       0.16180    0.72650    0.77350   1.00
O2       0.22650    0.72650    0.83820   1.00
O2       0.33820    0.77350    0.77350   1.00
O2       0.27350    0.83820    0.77350   1.00
O2       0.27350    0.77350    0.83820   1.00
C1       0.25000    0.75000    0.64480   1.00
C1       0.25000    0.64480    0.75000   1.00
C1       0.35520    0.75000    0.75000   1.00
C1       0.14480    0.75000    0.75000   1.00
C1       0.25000    0.85520    0.75000   1.00
C1       0.25000    0.75000    0.85520   1.00
O1       0.91500    0.91500    0.91500   1.00
Zn1      0.88220    0.94780    0.94780   1.00
Zn1      0.94780    0.88220    0.94780   1.00
Zn1      0.94780    0.94780    0.88220   1.00
Zn1      0.88220    0.88220    0.88220   1.00
O2       0.89150    0.93850    1.00320   1.00
O2       0.89150    1.00320    0.93850   1.00
O2       0.82680    0.93850    0.93850   1.00
O2       0.93850    0.89150    1.00320   1.00
O2       1.00320    0.89150    0.93850   1.00
O2       0.93850    0.82680    0.93850   1.00
O2       0.93850    1.00320    0.89150   1.00
O2       1.00320    0.93850    0.89150   1.00
O2       0.93850    0.93850    0.82680   1.00
O2       0.82680    0.89150    0.89150   1.00
O2       0.89150    0.82680    0.89150   1.00
O2       0.89150    0.89150    0.82680   1.00
C1       0.91500    0.91500    1.02020   1.00
C1       0.91500    1.02020    0.91500   1.00
C1       0.80980    0.91500    0.91500   1.00
C1       1.02020    0.91500    0.91500   1.00
C1       0.91500    0.80980    0.91500   1.00
C1       0.91500    0.91500    0.80980   1.00
O1       0.41500    0.41500    0.91500   1.00
Zn1      0.38220    0.44780    0.94780   1.00
Zn1      0.44780    0.38220    0.94780   1.00
Zn1      0.44780    0.44780    0.88220   1.00
Zn1      0.38220    0.38220    0.88220   1.00
O2       0.39150    0.43850    1.00320   1.00
O2       0.39150    0.50320    0.93850   1.00
O2       0.32680    0.43850    0.93850   1.00
O2       0.43850    0.39150    1.00320   1.00
O2       0.50320    0.39150    0.93850   1.00
O2       0.43850    0.32680    0.93850   1.00
O2       0.43850    0.50320    0.89150   1.00
O2       0.50320    0.43850    0.89150   1.00
O2       0.43850    0.43850    0.82680   1.00
O2       0.32680    0.39150    0.89150   1.00
O2       0.39150    0.32680    0.89150   1.00
O2       0.39150    0.39150    0.82680   1.00
C1       0.41500    0.41500    1.02020   1.00
C1       0.41500    0.52020    0.91500   1.00
C1       0.30980    0.41500    0.91500   1.00
C1       0.52020    0.41500    0.91500   1.00
C1       0.41500    0.30980    0.91500   1.00
C1       0.41500    0.41500    0.80980   1.00
O1       0.41500    0.91500    0.41500   1.00
Zn1      0.38220    0.94780    0.44780   1.00
Zn1      0.44780    0.88220    0.44780   1.00
Zn1      0.44780    0.94780    0.38220   1.00
Zn1      0.38220    0.88220    0.38220   1.00
O2       0.39150    0.93850    0.50320   1.00
O2       0.39150    1.00320    0.43850   1.00
O2       0.32680    0.93850    0.43850   1.00
O2       0.43850    0.89150    0.50320   1.00
O2       0.50320    0.89150    0.43850   1.00
O2       0.43850    0.82680    0.43850   1.00
O2       0.43850    1.00320    0.39150   1.00
O2       0.50320    0.93850    0.39150   1.00
O2       0.43850    0.93850    0.32680   1.00
O2       0.32680    0.89150    0.39150   1.00
O2       0.39150    0.82680    0.39150   1.00
O2       0.39150    0.89150    0.32680   1.00
C1       0.41500    0.91500    0.52020   1.00
C1       0.41500    1.02020    0.41500   1.00
C1       0.30980    0.91500    0.41500   1.00
C1       0.52020    0.91500    0.41500   1.00
C1       0.41500    0.80980    0.41500   1.00
C1       0.41500    0.91500    0.30980   1.00
O1       0.91500    0.41500    0.41500   1.00
Zn1      0.88220    0.44780    0.44780   1.00
Zn1      0.94780    0.38220    0.44780   1.00
Zn1      0.94780    0.44780    0.38220   1.00
Zn1      0.88220    0.38220    0.38220   1.00
O2       0.89150    0.43850    0.50320   1.00
O2       0.89150    0.50320    0.43850   1.00
O2       0.82680    0.43850    0.43850   1.00
O2       0.93850    0.39150    0.50320   1.00
O2       1.00320    0.39150    0.43850   1.00
O2       0.93850    0.32680    0.43850   1.00
O2       0.93850    0.50320    0.39150   1.00
O2       1.00320    0.43850    0.39150   1.00
O2       0.93850    0.43850    0.32680   1.00
O2       0.82680    0.39150    0.39150   1.00
O2       0.89150    0.32680    0.39150   1.00
O2       0.89150    0.39150    0.32680   1.00
C1       0.91500    0.41500    0.52020   1.00
C1       0.91500    0.52020    0.41500   1.00
C1       0.80980    0.41500    0.41500   1.00
C1       1.02020    0.41500    0.41500   1.00
C1       0.91500    0.30980    0.41500   1.00
C1       0.91500    0.41500    0.30980   1.00
O1       0.41500    0.41500    0.41500   1.00
Zn1      0.44780    0.38220    0.38220   1.00
Zn1      0.38220    0.44780    0.38220   1.00
Zn1      0.38220    0.38220    0.44780   1.00
Zn1      0.44780    0.44780    0.44780   1.00
O2       0.43850    0.39150    0.32680   1.00
O2       0.43850    0.32680    0.39150   1.00
O2       0.50320    0.39150    0.39150   1.00
O2       0.39150    0.43850    0.32680   1.00
O2       0.32680    0.43850    0.39150   1.00
O2       0.39150    0.50320    0.39150   1.00
O2       0.39150    0.32680    0.43850   1.00
O2       0.32680    0.39150    0.43850   1.00
O2       0.39150    0.39150    0.50320   1.00
O2       0.50320    0.43850    0.43850   1.00
O2       0.43850    0.50320    0.43850   1.00
O2       0.43850    0.43850    0.50320   1.00
C1       0.41500    0.41500    0.30980   1.00
C1       0.41500    0.30980    0.41500   1.00
C1       0.52020    0.41500    0.41500   1.00
C1       0.30980    0.41500    0.41500   1.00
C1       0.41500    0.52020    0.41500   1.00
C1       0.41500    0.41500    0.52020   1.00
O1       0.91500    0.91500    0.41500   1.00
Zn1      0.94780    0.88220    0.38220   1.00
Zn1      0.88220    0.94780    0.38220   1.00
Zn1      0.88220    0.88220    0.44780   1.00
Zn1      0.94780    0.94780    0.44780   1.00
O2       0.93850    0.89150    0.32680   1.00
O2       0.93850    0.82680    0.39150   1.00
O2       1.00320    0.89150    0.39150   1.00
O2       0.89150    0.93850    0.32680   1.00
O2       0.82680    0.93850    0.39150   1.00
O2       0.89150    1.00320    0.39150   1.00
O2       0.89150    0.82680    0.43850   1.00
O2       0.82680    0.89150    0.43850   1.00
O2       0.89150    0.89150    0.50320   1.00
O2       1.00320    0.93850    0.43850   1.00
O2       0.93850    1.00320    0.43850   1.00
O2       0.93850    0.93850    0.50320   1.00
C1       0.91500    0.91500    0.30980   1.00
C1       0.91500    0.80980    0.41500   1.00
C1       1.02020    0.91500    0.41500   1.00
C1       0.80980    0.91500    0.41500   1.00
C1       0.91500    1.02020    0.41500   1.00
C1       0.91500    0.91500    0.52020   1.00
O1       0.91500    0.41500    0.91500   1.00
Zn1      0.94780    0.38220    0.88220   1.00
Zn1      0.88220    0.44780    0.88220   1.00
Zn1      0.88220    0.38220    0.94780   1.00
Zn1      0.94780    0.44780    0.94780   1.00
O2       0.93850    0.39150    0.82680   1.00
O2       0.93850    0.32680    0.89150   1.00
O2       1.00320    0.39150    0.89150   1.00
O2       0.89150    0.43850    0.82680   1.00
O2       0.82680    0.43850    0.89150   1.00
O2       0.89150    0.50320    0.89150   1.00
O2       0.89150    0.32680    0.93850   1.00
O2       0.82680    0.39150    0.93850   1.00
O2       0.89150    0.39150    1.00320   1.00
O2       1.00320    0.43850    0.93850   1.00
O2       0.93850    0.50320    0.93850   1.00
O2       0.93850    0.43850    1.00320   1.00
C1       0.91500    0.41500    0.80980   1.00
C1       0.91500    0.30980    0.91500   1.00
C1       1.02020    0.41500    0.91500   1.00
C1       0.80980    0.41500    0.91500   1.00
C1       0.91500    0.52020    0.91500   1.00
C1       0.91500    0.41500    1.02020   1.00
O1       0.41500    0.91500    0.91500   1.00
Zn1      0.44780    0.88220    0.88220   1.00
Zn1      0.38220    0.94780    0.88220   1.00
Zn1      0.38220    0.88220    0.94780   1.00
Zn1      0.44780    0.94780    0.94780   1.00
O2       0.43850    0.89150    0.82680   1.00
O2       0.43850    0.82680    0.89150   1.00
O2       0.50320    0.89150    0.89150   1.00
O2       0.39150    0.93850    0.82680   1.00
O2       0.32680    0.93850    0.89150   1.00
O2       0.39150    1.00320    0.89150   1.00
O2       0.39150    0.82680    0.93850   1.00
O2       0.32680    0.89150    0.93850   1.00
O2       0.39150    0.89150    1.00320   1.00
O2       0.50320    0.93850    0.93850   1.00
O2       0.43850    1.00320    0.93850   1.00
O2       0.43850    0.93850    1.00320   1.00
C1       0.41500    0.91500    0.80980   1.00
C1       0.41500    0.80980    0.91500   1.00
C1       0.52020    0.91500    0.91500   1.00
C1       0.30980    0.91500    0.91500   1.00
C1       0.41500    1.02020    0.91500   1.00
C1       0.41500    0.91500    1.02020   1.00
C5       0.85056    0.67279    1.13218   1.00
H2       0.85904    0.70007    1.14745   1.00
H2       0.87427    0.66681    1.11090   1.00
C5       0.84741    0.63928    1.16194   1.00
C5       0.88796    0.62232    1.17123   1.00
H2       0.82849    0.61566    1.15015   1.00
O3       0.71710    0.68729    0.98000   1.00
C4       0.74997    0.75042    1.02100   1.00
C3c      0.78121    0.73480    1.04243   1.00
H1       0.80599    0.72253    1.02725   1.00
C3d      0.71821    0.76677    1.04135   1.00
C3       0.78081    0.73421    1.08354   1.00
O2       0.81435    0.72286    1.10248   1.00
C3       0.71739    0.76555    1.08227   1.00
H1       0.69179    0.77719    1.09657   1.00
C2       0.74854    0.74948    1.10439   1.00
C5       0.67594    0.68884    0.97879   1.00
H2       0.66448    0.68749    0.94838   1.00
H2       0.66483    0.71613    0.99266   1.00
C5       0.66047    0.65372    1.00129   1.00
H2       0.67280    0.65447    1.03137   1.00
H2       0.67144    0.62665    0.98698   1.00
C5       0.61556    0.65391    1.00262   1.00
H2       0.60305    0.65344    0.97268   1.00
H2       0.60461    0.68026    1.01811   1.00
C5       0.60067    0.61757    1.02445   1.00
C5       0.69069    0.81925    1.01105   1.00
C5       0.81281    0.68245    1.11070   1.00
H2       0.71587    0.82276    0.99088   1.00
H2       0.69549    0.83816    1.03712   1.00
H2       0.81091    0.66544    1.08300   1.00
H2       0.78697    0.67438    1.12895   1.00
H2       0.83514    0.64976    1.19030   1.00
H2       0.67965    0.86707    0.94247   1.00
H2       0.67212    0.89386    0.98763   1.00
C2       0.74748    0.74909    0.89605   1.00
C3       0.76596    0.78005    0.91597   1.00
O2       0.77459    0.81435    0.89674   1.00
C3       0.73177    0.71802    0.91826   1.00
H1       0.71834    0.69340    0.90385   1.00
C3a      0.76744    0.77983    0.95713   1.00
H1       0.77970    0.80480    0.97202   1.00
C3b      0.73218    0.71849    0.95922   1.00
C4       0.75003    0.74958    0.97900   1.00
O3       0.68546    0.77982    1.02167   1.00
C5       0.81462    0.81565    0.88720   1.00
H2       0.83321    0.81385    0.91391   1.00
C5       0.82189    0.85448    0.86674   1.00
H2       0.82264    0.79123    0.86726   1.00
H2       0.82416    0.87774    0.88932   1.00
H2       0.79546    0.86127    0.84907   1.00
C5       0.85857    0.85403    0.84082   1.00
H2       0.88410    0.84421    0.85824   1.00
C5       0.86709    0.89502    0.82453   1.00
H2       0.85472    0.83435    0.81507   1.00
C5       0.65372    0.83252    0.99017   1.00
H2       0.62995    0.83543    1.01215   1.00
H2       0.64471    0.80908    0.96952   1.00
C5       0.65982    0.87112    0.96800   1.00
C5       0.62052    0.88611    0.95225   1.00
H2       0.90359    0.64217    1.19286   1.00
H2       0.88453    0.59201    1.18447   1.00
H2       0.90578    0.62023    1.14323   1.00
H2       0.56827    0.62111    1.03105   1.00
H2       0.60525    0.59062    1.00551   1.00
H2       0.61748    0.61409    1.05293   1.00
H2       0.87969    0.89237    0.79387   1.00
H2       0.83888    0.91259    0.82344   1.00
H2       0.88900    0.91044    0.84423   1.00
H2       0.59727    0.86268    0.95634   1.00
H2       0.61166    0.91354    0.96884   1.00
H2       0.62352    0.89322    0.91990   1.00
C5       0.67279    1.13218    0.85056   1.00
H2       0.70007    1.14745    0.85904   1.00
H2       0.66681    1.11090    0.87427   1.00
C5       0.63928    1.16194    0.84741   1.00
C5       0.62232    1.17123    0.88796   1.00
H2       0.61566    1.15015    0.82849   1.00
O3       0.68729    0.98000    0.71710   1.00
C4       0.75042    1.02100    0.74997   1.00
C3c      0.73480    1.04243    0.78121   1.00
H1       0.72253    1.02725    0.80599   1.00
C3d      0.76677    1.04135    0.71821   1.00
C3       0.73421    1.08354    0.78081   1.00
O2       0.72286    1.10248    0.81435   1.00
C3       0.76555    1.08227    0.71739   1.00
H1       0.77719    1.09657    0.69179   1.00
C2       0.74948    1.10439    0.74854   1.00
C5       0.68884    0.97879    0.67594   1.00
H2       0.68749    0.94838    0.66448   1.00
H2       0.71613    0.99266    0.66483   1.00
C5       0.65372    1.00129    0.66047   1.00
H2       0.65447    1.03137    0.67280   1.00
H2       0.62665    0.98698    0.67144   1.00
C5       0.65391    1.00262    0.61556   1.00
H2       0.65344    0.97268    0.60305   1.00
H2       0.68026    1.01811    0.60461   1.00
C5       0.61757    1.02445    0.60067   1.00
C5       0.81925    1.01105    0.69069   1.00
C5       0.68245    1.11070    0.81281   1.00
H2       0.82276    0.99088    0.71587   1.00
H2       0.83816    1.03712    0.69549   1.00
H2       0.66544    1.08300    0.81091   1.00
H2       0.67438    1.12895    0.78697   1.00
H2       0.64976    1.19030    0.83514   1.00
H2       0.86707    0.94247    0.67965   1.00
H2       0.89386    0.98763    0.67212   1.00
C2       0.74909    0.89605    0.74748   1.00
C3       0.78005    0.91597    0.76596   1.00
O2       0.81435    0.89674    0.77459   1.00
C3       0.71802    0.91826    0.73177   1.00
H1       0.69340    0.90385    0.71834   1.00
C3a      0.77983    0.95713    0.76744   1.00
H1       0.80480    0.97202    0.77970   1.00
C3b      0.71849    0.95922    0.73218   1.00
C4       0.74958    0.97900    0.75003   1.00
O3       0.77982    1.02167    0.68546   1.00
C5       0.81565    0.88720    0.81462   1.00
H2       0.81385    0.91391    0.83321   1.00
C5       0.85448    0.86674    0.82189   1.00
H2       0.79123    0.86726    0.82264   1.00
H2       0.87774    0.88932    0.82416   1.00
H2       0.86127    0.84907    0.79546   1.00
C5       0.85403    0.84082    0.85857   1.00
H2       0.84421    0.85824    0.88410   1.00
C5       0.89502    0.82453    0.86709   1.00
H2       0.83435    0.81507    0.85472   1.00
C5       0.83252    0.99017    0.65372   1.00
H2       0.83543    1.01215    0.62995   1.00
H2       0.80908    0.96952    0.64471   1.00
C5       0.87112    0.96800    0.65982   1.00
C5       0.88611    0.95225    0.62052   1.00
H2       0.64217    1.19286    0.90359   1.00
H2       0.59201    1.18447    0.88453   1.00
H2       0.62023    1.14323    0.90578   1.00
H2       0.62111    1.03105    0.56827   1.00
H2       0.59062    1.00551    0.60525   1.00
H2       0.61409    1.05293    0.61748   1.00
H2       0.89237    0.79387    0.87969   1.00
H2       0.91259    0.82344    0.83888   1.00
H2       0.91044    0.84423    0.88900   1.00
H2       0.86268    0.95634    0.59727   1.00
H2       0.91354    0.96884    0.61166   1.00
H2       0.89322    0.91990    0.62352   1.00
C5       0.36782    0.85056    0.82721   1.00
H2       0.35255    0.85904    0.79993   1.00
H2       0.38910    0.87427    0.83319   1.00
C5       0.33806    0.84741    0.86072   1.00
C5       0.32877    0.88796    0.87768   1.00
H2       0.34985    0.82849    0.88434   1.00
O3       0.52000    0.71710    0.81271   1.00
C4       0.47900    0.74997    0.74958   1.00
C3c      0.45757    0.78121    0.76520   1.00
H1       0.47275    0.80599    0.77747   1.00
C3d      0.45865    0.71821    0.73323   1.00
C3       0.41646    0.78081    0.76579   1.00
O2       0.39752    0.81435    0.77714   1.00
C3       0.41773    0.71739    0.73445   1.00
H1       0.40343    0.69179    0.72281   1.00
C2       0.39561    0.74854    0.75052   1.00
C5       0.52121    0.67594    0.81116   1.00
H2       0.55162    0.66448    0.81251   1.00
H2       0.50734    0.66483    0.78387   1.00
C5       0.49871    0.66047    0.84628   1.00
H2       0.46863    0.67280    0.84553   1.00
H2       0.51302    0.67144    0.87335   1.00
C5       0.49738    0.61556    0.84609   1.00
H2       0.52732    0.60305    0.84656   1.00
H2       0.48189    0.60461    0.81974   1.00
C5       0.47555    0.60067    0.88243   1.00
C5       0.48895    0.69069    0.68075   1.00
C5       0.38930    0.81281    0.81755   1.00
H2       0.50912    0.71587    0.67724   1.00
H2       0.46288    0.69549    0.66184   1.00
H2       0.41700    0.81091    0.83456   1.00
H2       0.37105    0.78697    0.82562   1.00
H2       0.30970    0.83514    0.85024   1.00
H2       0.55753    0.67965    0.63293   1.00
H2       0.51237    0.67212    0.60614   1.00
C2       0.60395    0.74748    0.75091   1.00
C3       0.58403    0.76596    0.71995   1.00
O2       0.60326    0.77459    0.68565   1.00
C3       0.58174    0.73177    0.78198   1.00
H1       0.59615    0.71834    0.80660   1.00
C3a      0.54287    0.76744    0.72017   1.00
H1       0.52798    0.77970    0.69520   1.00
C3b      0.54078    0.73218    0.78151   1.00
C4       0.52100    0.75003    0.75042   1.00
O3       0.47833    0.68546    0.72018   1.00
C5       0.61280    0.81462    0.68435   1.00
H2       0.58609    0.83321    0.68615   1.00
C5       0.63326    0.82189    0.64552   1.00
H2       0.63274    0.82264    0.70877   1.00
H2       0.61068    0.82416    0.62226   1.00
H2       0.65093    0.79546    0.63873   1.00
C5       0.65918    0.85857    0.64597   1.00
H2       0.64176    0.88410    0.65579   1.00
C5       0.67547    0.86709    0.60498   1.00
H2       0.68493    0.85472    0.66565   1.00
C5       0.50983    0.65372    0.66748   1.00
H2       0.48785    0.62995    0.66457   1.00
H2       0.53048    0.64471    0.69092   1.00
C5       0.53200    0.65982    0.62888   1.00
C5       0.54775    0.62052    0.61389   1.00
H2       0.30714    0.90359    0.85783   1.00
H2       0.31553    0.88453    0.90799   1.00
H2       0.35677    0.90578    0.87977   1.00
H2       0.46895    0.56827    0.87889   1.00
H2       0.49449    0.60525    0.90938   1.00
H2       0.44707    0.61748    0.88591   1.00
H2       0.70613    0.87969    0.60763   1.00
H2       0.67656    0.83888    0.58741   1.00
H2       0.65577    0.88900    0.58956   1.00
H2       0.54366    0.59727    0.63732   1.00
H2       0.53116    0.61166    0.58646   1.00
H2       0.58010    0.62352    0.60678   1.00
C5       1.13218    0.85056    0.67279   1.00
H2       1.14745    0.85904    0.70007   1.00
H2       1.11090    0.87427    0.66681   1.00
C5       1.16194    0.84741    0.63928   1.00
C5       1.17123    0.88796    0.62232   1.00
H2       1.15015    0.82849    0.61566   1.00
O3       0.98000    0.71710    0.68729   1.00
C4       1.02100    0.74997    0.75042   1.00
C3c      1.04243    0.78121    0.73480   1.00
H1       1.02725    0.80599    0.72253   1.00
C3d      1.04135    0.71821    0.76677   1.00
C3       1.08354    0.78081    0.73421   1.00
O2       1.10248    0.81435    0.72286   1.00
C3       1.08227    0.71739    0.76555   1.00
H1       1.09657    0.69179    0.77719   1.00
C2       1.10439    0.74854    0.74948   1.00
C5       0.97879    0.67594    0.68884   1.00
H2       0.94838    0.66448    0.68749   1.00
H2       0.99266    0.66483    0.71613   1.00
C5       1.00129    0.66047    0.65372   1.00
H2       1.03137    0.67280    0.65447   1.00
H2       0.98698    0.67144    0.62665   1.00
C5       1.00262    0.61556    0.65391   1.00
H2       0.97268    0.60305    0.65344   1.00
H2       1.01811    0.60461    0.68026   1.00
C5       1.02445    0.60067    0.61757   1.00
C5       1.01105    0.69069    0.81925   1.00
C5       1.11070    0.81281    0.68245   1.00
H2       0.99088    0.71587    0.82276   1.00
H2       1.03712    0.69549    0.83816   1.00
H2       1.08300    0.81091    0.66544   1.00
H2       1.12895    0.78697    0.67438   1.00
H2       1.19030    0.83514    0.64976   1.00
H2       0.94247    0.67965    0.86707   1.00
H2       0.98763    0.67212    0.89386   1.00
C2       0.89605    0.74748    0.74909   1.00
C3       0.91597    0.76596    0.78005   1.00
O2       0.89674    0.77459    0.81435   1.00
C3       0.91826    0.73177    0.71802   1.00
H1       0.90385    0.71834    0.69340   1.00
C3a      0.95713    0.76744    0.77983   1.00
H1       0.97202    0.77970    0.80480   1.00
C3b      0.95922    0.73218    0.71849   1.00
C4       0.97900    0.75003    0.74958   1.00
O3       1.02167    0.68546    0.77982   1.00
C5       0.88720    0.81462    0.81565   1.00
H2       0.91391    0.83321    0.81385   1.00
C5       0.86674    0.82189    0.85448   1.00
H2       0.86726    0.82264    0.79123   1.00
H2       0.88932    0.82416    0.87774   1.00
H2       0.84907    0.79546    0.86127   1.00
C5       0.84082    0.85857    0.85403   1.00
H2       0.85824    0.88410    0.84421   1.00
C5       0.82453    0.86709    0.89502   1.00
H2       0.81507    0.85472    0.83435   1.00
C5       0.99017    0.65372    0.83252   1.00
H2       1.01215    0.62995    0.83543   1.00
H2       0.96952    0.64471    0.80908   1.00
C5       0.96800    0.65982    0.87112   1.00
C5       0.95225    0.62052    0.88611   1.00
H2       1.19286    0.90359    0.64217   1.00
H2       1.18447    0.88453    0.59201   1.00
H2       1.14323    0.90578    0.62023   1.00
H2       1.03105    0.56827    0.62111   1.00
H2       1.00551    0.60525    0.59062   1.00
H2       1.05293    0.61748    0.61409   1.00
H2       0.79387    0.87969    0.89237   1.00
H2       0.82344    0.83888    0.91259   1.00
H2       0.84423    0.88900    0.91044   1.00
H2       0.95634    0.59727    0.86268   1.00
H2       0.96884    0.61166    0.91354   1.00
H2       0.91990    0.62352    0.89322   1.00
C5       0.82721    0.36782    0.85056   1.00
H2       0.79993    0.35255    0.85904   1.00
H2       0.83319    0.38910    0.87427   1.00
C5       0.86072    0.33806    0.84741   1.00
C5       0.87768    0.32877    0.88796   1.00
H2       0.88434    0.34985    0.82849   1.00
O3       0.81271    0.52000    0.71710   1.00
C4       0.74958    0.47900    0.74997   1.00
C3c      0.76520    0.45757    0.78121   1.00
H1       0.77747    0.47275    0.80599   1.00
C3d      0.73323    0.45865    0.71821   1.00
C3       0.76579    0.41646    0.78081   1.00
O2       0.77714    0.39752    0.81435   1.00
C3       0.73445    0.41773    0.71739   1.00
H1       0.72281    0.40343    0.69179   1.00
C2       0.75052    0.39561    0.74854   1.00
C5       0.81116    0.52121    0.67594   1.00
H2       0.81251    0.55162    0.66448   1.00
H2       0.78387    0.50734    0.66483   1.00
C5       0.84628    0.49871    0.66047   1.00
H2       0.84553    0.46863    0.67280   1.00
H2       0.87335    0.51302    0.67144   1.00
C5       0.84609    0.49738    0.61556   1.00
H2       0.84656    0.52732    0.60305   1.00
H2       0.81974    0.48189    0.60461   1.00
C5       0.88243    0.47555    0.60067   1.00
C5       0.68075    0.48895    0.69069   1.00
C5       0.81755    0.38930    0.81281   1.00
H2       0.67724    0.50912    0.71587   1.00
H2       0.66184    0.46288    0.69549   1.00
H2       0.83456    0.41700    0.81091   1.00
H2       0.82562    0.37105    0.78697   1.00
H2       0.85024    0.30970    0.83514   1.00
H2       0.63293    0.55753    0.67965   1.00
H2       0.60614    0.51237    0.67212   1.00
C2       0.75091    0.60395    0.74748   1.00
C3       0.71995    0.58403    0.76596   1.00
O2       0.68565    0.60326    0.77459   1.00
C3       0.78198    0.58174    0.73177   1.00
H1       0.80660    0.59615    0.71834   1.00
C3a      0.72017    0.54287    0.76744   1.00
H1       0.69520    0.52798    0.77970   1.00
C3b      0.78151    0.54078    0.73218   1.00
C4       0.75042    0.52100    0.75003   1.00
O3       0.72018    0.47833    0.68546   1.00
C5       0.68435    0.61280    0.81462   1.00
H2       0.68615    0.58609    0.83321   1.00
C5       0.64552    0.63326    0.82189   1.00
H2       0.70877    0.63274    0.82264   1.00
H2       0.62226    0.61068    0.82416   1.00
H2       0.63873    0.65093    0.79546   1.00
C5       0.64597    0.65918    0.85857   1.00
H2       0.65579    0.64176    0.88410   1.00
C5       0.60498    0.67547    0.86709   1.00
H2       0.66565    0.68493    0.85472   1.00
C5       0.66748    0.50983    0.65372   1.00
H2       0.66457    0.48785    0.62995   1.00
H2       0.69092    0.53048    0.64471   1.00
C5       0.62888    0.53200    0.65982   1.00
C5       0.61389    0.54775    0.62052   1.00
H2       0.85783    0.30714    0.90359   1.00
H2       0.90799    0.31553    0.88453   1.00
H2       0.87977    0.35677    0.90578   1.00
H2       0.87889    0.46895    0.56827   1.00
H2       0.90938    0.49449    0.60525   1.00
H2       0.88591    0.44707    0.61748   1.00
H2       0.60763    0.70613    0.87969   1.00
H2       0.58741    0.67656    0.83888   1.00
H2       0.58956    0.65577    0.88900   1.00
H2       0.63732    0.54366    0.59727   1.00
H2       0.58646    0.53116    0.61166   1.00
H2       0.60678    0.58010    0.62352   1.00
C5       0.85056    0.82721    0.36782   1.00
H2       0.85904    0.79993    0.35255   1.00
H2       0.87427    0.83319    0.38910   1.00
C5       0.84741    0.86072    0.33806   1.00
C5       0.88796    0.87768    0.32877   1.00
H2       0.82849    0.88434    0.34985   1.00
O3       0.71710    0.81271    0.52000   1.00
C4       0.74997    0.74958    0.47900   1.00
C3c      0.78121    0.76520    0.45757   1.00
H1       0.80599    0.77747    0.47275   1.00
C3d      0.71821    0.73323    0.45865   1.00
C3       0.78081    0.76579    0.41646   1.00
O2       0.81435    0.77714    0.39752   1.00
C3       0.71739    0.73445    0.41773   1.00
H1       0.69179    0.72281    0.40343   1.00
C2       0.74854    0.75052    0.39561   1.00
C5       0.67594    0.81116    0.52121   1.00
H2       0.66448    0.81251    0.55162   1.00
H2       0.66483    0.78387    0.50734   1.00
C5       0.66047    0.84628    0.49871   1.00
H2       0.67280    0.84553    0.46863   1.00
H2       0.67144    0.87335    0.51302   1.00
C5       0.61556    0.84609    0.49738   1.00
H2       0.60305    0.84656    0.52732   1.00
H2       0.60461    0.81974    0.48189   1.00
C5       0.60067    0.88243    0.47555   1.00
C5       0.69069    0.68075    0.48895   1.00
C5       0.81281    0.81755    0.38930   1.00
H2       0.71587    0.67724    0.50912   1.00
H2       0.69549    0.66184    0.46288   1.00
H2       0.81091    0.83456    0.41700   1.00
H2       0.78697    0.82562    0.37105   1.00
H2       0.83514    0.85024    0.30970   1.00
H2       0.67965    0.63293    0.55753   1.00
H2       0.67212    0.60614    0.51237   1.00
C2       0.74748    0.75091    0.60395   1.00
C3       0.76596    0.71995    0.58403   1.00
O2       0.77459    0.68565    0.60326   1.00
C3       0.73177    0.78198    0.58174   1.00
H1       0.71834    0.80660    0.59615   1.00
C3a      0.76744    0.72017    0.54287   1.00
H1       0.77970    0.69520    0.52798   1.00
C3b      0.73218    0.78151    0.54078   1.00
C4       0.75003    0.75042    0.52100   1.00
O3       0.68546    0.72018    0.47833   1.00
C5       0.81462    0.68435    0.61280   1.00
H2       0.83321    0.68615    0.58609   1.00
C5       0.82189    0.64552    0.63326   1.00
H2       0.82264    0.70877    0.63274   1.00
H2       0.82416    0.62226    0.61068   1.00
H2       0.79546    0.63873    0.65093   1.00
C5       0.85857    0.64597    0.65918   1.00
H2       0.88410    0.65579    0.64176   1.00
C5       0.86709    0.60498    0.67547   1.00
H2       0.85472    0.66565    0.68493   1.00
C5       0.65372    0.66748    0.50983   1.00
H2       0.62995    0.66457    0.48785   1.00
H2       0.64471    0.69092    0.53048   1.00
C5       0.65982    0.62888    0.53200   1.00
C5       0.62052    0.61389    0.54775   1.00
H2       0.90359    0.85783    0.30714   1.00
H2       0.88453    0.90799    0.31553   1.00
H2       0.90578    0.87977    0.35677   1.00
H2       0.56827    0.87889    0.46895   1.00
H2       0.60525    0.90938    0.49449   1.00
H2       0.61748    0.88591    0.44707   1.00
H2       0.87969    0.60763    0.70613   1.00
H2       0.83888    0.58741    0.67656   1.00
H2       0.88900    0.58956    0.65577   1.00
H2       0.59727    0.63732    0.54366   1.00
H2       0.61166    0.58646    0.53116   1.00
H2       0.62352    0.60678    0.58010   1.00
C5       0.35056    0.17279    1.13218   1.00
H2       0.35904    0.20007    1.14745   1.00
H2       0.37427    0.16681    1.11090   1.00
C5       0.34741    0.13928    1.16194   1.00
C5       0.38796    0.12232    1.17123   1.00
H2       0.32849    0.11566    1.15015   1.00
O3       0.21710    0.18729    0.98000   1.00
C4       0.24997    0.25042    1.02100   1.00
C3c      0.28121    0.23480    1.04243   1.00
H1       0.30599    0.22253    1.02725   1.00
C3d      0.21821    0.26677    1.04135   1.00
C3       0.28081    0.23421    1.08354   1.00
O2       0.31435    0.22286    1.10248   1.00
C3       0.21739    0.26555    1.08227   1.00
H1       0.19179    0.27719    1.09657   1.00
C2       0.24854    0.24948    1.10439   1.00
C5       0.17594    0.18884    0.97879   1.00
H2       0.16448    0.18749    0.94838   1.00
H2       0.16483    0.21613    0.99266   1.00
C5       0.16047    0.15372    1.00129   1.00
H2       0.17280    0.15447    1.03137   1.00
H2       0.17144    0.12665    0.98698   1.00
C5       0.11556    0.15391    1.00262   1.00
H2       0.10305    0.15344    0.97268   1.00
H2       0.10461    0.18026    1.01811   1.00
C5       0.10067    0.11757    1.02445   1.00
C5       0.19069    0.31925    1.01105   1.00
C5       0.31281    0.18245    1.11070   1.00
H2       0.21587    0.32276    0.99088   1.00
H2       0.19549    0.33816    1.03712   1.00
H2       0.31091    0.16544    1.08300   1.00
H2       0.28697    0.17438    1.12895   1.00
H2       0.33514    0.14976    1.19030   1.00
H2       0.17965    0.36707    0.94247   1.00
H2       0.17212    0.39386    0.98763   1.00
C2       0.24748    0.24909    0.89605   1.00
C3       0.26596    0.28005    0.91597   1.00
O2       0.27459    0.31435    0.89674   1.00
C3       0.23177    0.21802    0.91826   1.00
H1       0.21834    0.19340    0.90385   1.00
C3a      0.26744    0.27983    0.95713   1.00
H1       0.27970    0.30480    0.97202   1.00
C3b      0.23218    0.21849    0.95922   1.00
C4       0.25003    0.24958    0.97900   1.00
O3       0.18546    0.27982    1.02167   1.00
C5       0.31462    0.31565    0.88720   1.00
H2       0.33321    0.31385    0.91391   1.00
C5       0.32189    0.35448    0.86674   1.00
H2       0.32264    0.29123    0.86726   1.00
H2       0.32416    0.37774    0.88932   1.00
H2       0.29546    0.36127    0.84907   1.00
C5       0.35857    0.35403    0.84082   1.00
H2       0.38410    0.34421    0.85824   1.00
C5       0.36709    0.39502    0.82453   1.00
H2       0.35472    0.33435    0.81507   1.00
C5       0.15372    0.33252    0.99017   1.00
H2       0.12995    0.33543    1.01215   1.00
H2       0.14471    0.30908    0.96952   1.00
C5       0.15982    0.37112    0.96800   1.00
C5       0.12052    0.38611    0.95225   1.00
H2       0.40359    0.14217    1.19286   1.00
H2       0.38453    0.09201    1.18447   1.00
H2       0.40578    0.12023    1.14323   1.00
H2       0.06827    0.12111    1.03105   1.00
H2       0.10525    0.09062    1.00551   1.00
H2       0.11748    0.11409    1.05293   1.00
H2       0.37969    0.39237    0.79387   1.00
H2       0.33888    0.41259    0.82344   1.00
H2       0.38900    0.41044    0.84423   1.00
H2       0.09727    0.36268    0.95634   1.00
H2       0.11166    0.41354    0.96884   1.00
H2       0.12352    0.39322    0.91990   1.00
C5       0.17279    0.63218    0.85056   1.00
H2       0.20007    0.64745    0.85904   1.00
H2       0.16681    0.61090    0.87427   1.00
C5       0.13928    0.66194    0.84741   1.00
C5       0.12232    0.67123    0.88796   1.00
H2       0.11566    0.65015    0.82849   1.00
O3       0.18729    0.48000    0.71710   1.00
C4       0.25042    0.52100    0.74997   1.00
C3c      0.23480    0.54243    0.78121   1.00
H1       0.22253    0.52725    0.80599   1.00
C3d      0.26677    0.54135    0.71821   1.00
C3       0.23421    0.58354    0.78081   1.00
O2       0.22286    0.60248    0.81435   1.00
C3       0.26555    0.58227    0.71739   1.00
H1       0.27719    0.59657    0.69179   1.00
C2       0.24948    0.60439    0.74854   1.00
C5       0.18884    0.47879    0.67594   1.00
H2       0.18749    0.44838    0.66448   1.00
H2       0.21613    0.49266    0.66483   1.00
C5       0.15372    0.50129    0.66047   1.00
H2       0.15447    0.53137    0.67280   1.00
H2       0.12665    0.48698    0.67144   1.00
C5       0.15391    0.50262    0.61556   1.00
H2       0.15344    0.47268    0.60305   1.00
H2       0.18026    0.51811    0.60461   1.00
C5       0.11757    0.52445    0.60067   1.00
C5       0.31925    0.51105    0.69069   1.00
C5       0.18245    0.61070    0.81281   1.00
H2       0.32276    0.49088    0.71587   1.00
H2       0.33816    0.53712    0.69549   1.00
H2       0.16544    0.58300    0.81091   1.00
H2       0.17438    0.62895    0.78697   1.00
H2       0.14976    0.69030    0.83514   1.00
H2       0.36707    0.44247    0.67965   1.00
H2       0.39386    0.48763    0.67212   1.00
C2       0.24909    0.39605    0.74748   1.00
C3       0.28005    0.41597    0.76596   1.00
O2       0.31435    0.39674    0.77459   1.00
C3       0.21802    0.41826    0.73177   1.00
H1       0.19340    0.40385    0.71834   1.00
C3a      0.27983    0.45713    0.76744   1.00
H1       0.30480    0.47202    0.77970   1.00
C3b      0.21849    0.45922    0.73218   1.00
C4       0.24958    0.47900    0.75003   1.00
O3       0.27982    0.52167    0.68546   1.00
C5       0.31565    0.38720    0.81462   1.00
H2       0.31385    0.41391    0.83321   1.00
C5       0.35448    0.36674    0.82189   1.00
H2       0.29123    0.36726    0.82264   1.00
H2       0.37774    0.38932    0.82416   1.00
H2       0.36127    0.34907    0.79546   1.00
C5       0.35403    0.34082    0.85857   1.00
H2       0.34421    0.35824    0.88410   1.00
C5       0.39502    0.32453    0.86709   1.00
H2       0.33435    0.31507    0.85472   1.00
C5       0.33252    0.49017    0.65372   1.00
H2       0.33543    0.51215    0.62995   1.00
H2       0.30908    0.46952    0.64471   1.00
C5       0.37112    0.46800    0.65982   1.00
C5       0.38611    0.45225    0.62052   1.00
H2       0.14217    0.69286    0.90359   1.00
H2       0.09201    0.68447    0.88453   1.00
H2       0.12023    0.64323    0.90578   1.00
H2       0.12111    0.53105    0.56827   1.00
H2       0.09062    0.50551    0.60525   1.00
H2       0.11409    0.55293    0.61748   1.00
H2       0.39237    0.29387    0.87969   1.00
H2       0.41259    0.32344    0.83888   1.00
H2       0.41044    0.34423    0.88900   1.00
H2       0.36268    0.45634    0.59727   1.00
H2       0.41354    0.46884    0.61166   1.00
H2       0.39322    0.41990    0.62352   1.00
C5       -0.13218   0.35056    0.82721   1.00
H2       -0.14745   0.35904    0.79993   1.00
H2       -0.11090   0.37427    0.83319   1.00
C5       -0.16194   0.34741    0.86072   1.00
C5       -0.17123   0.38796    0.87768   1.00
H2       -0.15015   0.32849    0.88434   1.00
O3       0.02000    0.21710    0.81271   1.00
C4       -0.02100   0.24997    0.74958   1.00
C3c      -0.04243   0.28121    0.76520   1.00
H1       -0.02725   0.30599    0.77747   1.00
C3d      -0.04135   0.21821    0.73323   1.00
C3       -0.08354   0.28081    0.76579   1.00
O2       -0.10248   0.31435    0.77714   1.00
C3       -0.08227   0.21739    0.73445   1.00
H1       -0.09657   0.19179    0.72281   1.00
C2       -0.10439   0.24854    0.75052   1.00
C5       0.02121    0.17594    0.81116   1.00
H2       0.05162    0.16448    0.81251   1.00
H2       0.00734    0.16483    0.78387   1.00
C5       -0.00129   0.16047    0.84628   1.00
H2       -0.03137   0.17280    0.84553   1.00
H2       0.01302    0.17144    0.87335   1.00
C5       -0.00262   0.11556    0.84609   1.00
H2       0.02732    0.10305    0.84656   1.00
H2       -0.01811   0.10461    0.81974   1.00
C5       -0.02445   0.10067    0.88243   1.00
C5       -0.01105   0.19069    0.68075   1.00
C5       -0.11070   0.31281    0.81755   1.00
H2       0.00912    0.21587    0.67724   1.00
H2       -0.03712   0.19549    0.66184   1.00
H2       -0.08300   0.31091    0.83456   1.00
H2       -0.12895   0.28697    0.82562   1.00
H2       -0.19030   0.33514    0.85024   1.00
H2       0.05753    0.17965    0.63293   1.00
H2       0.01237    0.17212    0.60614   1.00
C2       0.10395    0.24748    0.75091   1.00
C3       0.08403    0.26596    0.71995   1.00
O2       0.10326    0.27459    0.68565   1.00
C3       0.08174    0.23177    0.78198   1.00
H1       0.09615    0.21834    0.80660   1.00
C3a      0.04287    0.26744    0.72017   1.00
H1       0.02798    0.27970    0.69520   1.00
C3b      0.04078    0.23218    0.78151   1.00
C4       0.02100    0.25003    0.75042   1.00
O3       -0.02167   0.18546    0.72018   1.00
C5       0.11280    0.31462    0.68435   1.00
H2       0.08609    0.33321    0.68615   1.00
C5       0.13326    0.32189    0.64552   1.00
H2       0.13274    0.32264    0.70877   1.00
H2       0.11068    0.32416    0.62226   1.00
H2       0.15093    0.29546    0.63873   1.00
C5       0.15918    0.35857    0.64597   1.00
H2       0.14176    0.38410    0.65579   1.00
C5       0.17547    0.36709    0.60498   1.00
H2       0.18493    0.35472    0.66565   1.00
C5       0.00983    0.15372    0.66748   1.00
H2       -0.01215   0.12995    0.66457   1.00
H2       0.03048    0.14471    0.69092   1.00
C5       0.03200    0.15982    0.62888   1.00
C5       0.04775    0.12052    0.61389   1.00
H2       -0.19286   0.40359    0.85783   1.00
H2       -0.18447   0.38453    0.90799   1.00
H2       -0.14323   0.40578    0.87977   1.00
H2       -0.03105   0.06827    0.87889   1.00
H2       -0.00551   0.10525    0.90938   1.00
H2       -0.05293   0.11748    0.88591   1.00
H2       0.20613    0.37969    0.60763   1.00
H2       0.17656    0.33888    0.58741   1.00
H2       0.15577    0.38900    0.58956   1.00
H2       0.04366    0.09727    0.63732   1.00
H2       0.03116    0.11166    0.58646   1.00
H2       0.08010    0.12352    0.60678   1.00
C5       0.63218    0.35056    0.67279   1.00
H2       0.64745    0.35904    0.70007   1.00
H2       0.61090    0.37427    0.66681   1.00
C5       0.66194    0.34741    0.63928   1.00
C5       0.67123    0.38796    0.62232   1.00
H2       0.65015    0.32849    0.61566   1.00
O3       0.48000    0.21710    0.68729   1.00
C4       0.52100    0.24997    0.75042   1.00
C3c      0.54243    0.28121    0.73480   1.00
H1       0.52725    0.30599    0.72253   1.00
C3d      0.54135    0.21821    0.76677   1.00
C3       0.58354    0.28081    0.73421   1.00
O2       0.60248    0.31435    0.72286   1.00
C3       0.58227    0.21739    0.76555   1.00
H1       0.59657    0.19179    0.77719   1.00
C2       0.60439    0.24854    0.74948   1.00
C5       0.47879    0.17594    0.68884   1.00
H2       0.44838    0.16448    0.68749   1.00
H2       0.49266    0.16483    0.71613   1.00
C5       0.50129    0.16047    0.65372   1.00
H2       0.53137    0.17280    0.65447   1.00
H2       0.48698    0.17144    0.62665   1.00
C5       0.50262    0.11556    0.65391   1.00
H2       0.47268    0.10305    0.65344   1.00
H2       0.51811    0.10461    0.68026   1.00
C5       0.52445    0.10067    0.61757   1.00
C5       0.51105    0.19069    0.81925   1.00
C5       0.61070    0.31281    0.68245   1.00
H2       0.49088    0.21587    0.82276   1.00
H2       0.53712    0.19549    0.83816   1.00
H2       0.58300    0.31091    0.66544   1.00
H2       0.62895    0.28697    0.67438   1.00
H2       0.69030    0.33514    0.64976   1.00
H2       0.44247    0.17965    0.86707   1.00
H2       0.48763    0.17212    0.89386   1.00
C2       0.39605    0.24748    0.74909   1.00
C3       0.41597    0.26596    0.78005   1.00
O2       0.39674    0.27459    0.81435   1.00
C3       0.41826    0.23177    0.71802   1.00
H1       0.40385    0.21834    0.69340   1.00
C3a      0.45713    0.26744    0.77983   1.00
H1       0.47202    0.27970    0.80480   1.00
C3b      0.45922    0.23218    0.71849   1.00
C4       0.47900    0.25003    0.74958   1.00
O3       0.52167    0.18546    0.77982   1.00
C5       0.38720    0.31462    0.81565   1.00
H2       0.41391    0.33321    0.81385   1.00
C5       0.36674    0.32189    0.85448   1.00
H2       0.36726    0.32264    0.79123   1.00
H2       0.38932    0.32416    0.87774   1.00
H2       0.34907    0.29546    0.86127   1.00
C5       0.34082    0.35857    0.85403   1.00
H2       0.35824    0.38410    0.84421   1.00
C5       0.32453    0.36709    0.89502   1.00
H2       0.31507    0.35472    0.83435   1.00
C5       0.49017    0.15372    0.83252   1.00
H2       0.51215    0.12995    0.83543   1.00
H2       0.46952    0.14471    0.80908   1.00
C5       0.46800    0.15982    0.87112   1.00
C5       0.45225    0.12052    0.88611   1.00
H2       0.69286    0.40359    0.64217   1.00
H2       0.68447    0.38453    0.59201   1.00
H2       0.64323    0.40578    0.62023   1.00
H2       0.53105    0.06827    0.62111   1.00
H2       0.50551    0.10525    0.59062   1.00
H2       0.55293    0.11748    0.61409   1.00
H2       0.29387    0.37969    0.89237   1.00
H2       0.32344    0.33888    0.91259   1.00
H2       0.34423    0.38900    0.91044   1.00
H2       0.45634    0.09727    0.86268   1.00
H2       0.46884    0.11166    0.91354   1.00
H2       0.41990    0.12352    0.89322   1.00
C5       0.32721    -0.13218   0.85056   1.00
H2       0.29993    -0.14745   0.85904   1.00
H2       0.33319    -0.11090   0.87427   1.00
C5       0.36072    -0.16194   0.84741   1.00
C5       0.37768    -0.17123   0.88796   1.00
H2       0.38434    -0.15015   0.82849   1.00
O3       0.31271    0.02000    0.71710   1.00
C4       0.24958    -0.02100   0.74997   1.00
C3c      0.26520    -0.04243   0.78121   1.00
H1       0.27747    -0.02725   0.80599   1.00
C3d      0.23323    -0.04135   0.71821   1.00
C3       0.26579    -0.08354   0.78081   1.00
O2       0.27714    -0.10248   0.81435   1.00
C3       0.23445    -0.08227   0.71739   1.00
H1       0.22281    -0.09657   0.69179   1.00
C2       0.25052    -0.10439   0.74854   1.00
C5       0.31116    0.02121    0.67594   1.00
H2       0.31251    0.05162    0.66448   1.00
H2       0.28387    0.00734    0.66483   1.00
C5       0.34628    -0.00129   0.66047   1.00
H2       0.34553    -0.03137   0.67280   1.00
H2       0.37335    0.01302    0.67144   1.00
C5       0.34609    -0.00262   0.61556   1.00
H2       0.34656    0.02732    0.60305   1.00
H2       0.31974    -0.01811   0.60461   1.00
C5       0.38243    -0.02445   0.60067   1.00
C5       0.18075    -0.01105   0.69069   1.00
C5       0.31755    -0.11070   0.81281   1.00
H2       0.17724    0.00912    0.71587   1.00
H2       0.16184    -0.03712   0.69549   1.00
H2       0.33456    -0.08300   0.81091   1.00
H2       0.32562    -0.12895   0.78697   1.00
H2       0.35024    -0.19030   0.83514   1.00
H2       0.13293    0.05753    0.67965   1.00
H2       0.10614    0.01237    0.67212   1.00
C2       0.25091    0.10395    0.74748   1.00
C3       0.21995    0.08403    0.76596   1.00
O2       0.18565    0.10326    0.77459   1.00
C3       0.28198    0.08174    0.73177   1.00
H1       0.30660    0.09615    0.71834   1.00
C3a      0.22017    0.04287    0.76744   1.00
H1       0.19520    0.02798    0.77970   1.00
C3b      0.28151    0.04078    0.73218   1.00
C4       0.25042    0.02100    0.75003   1.00
O3       0.22018    -0.02167   0.68546   1.00
C5       0.18435    0.11280    0.81462   1.00
H2       0.18615    0.08609    0.83321   1.00
C5       0.14552    0.13326    0.82189   1.00
H2       0.20877    0.13274    0.82264   1.00
H2       0.12226    0.11068    0.82416   1.00
H2       0.13873    0.15093    0.79546   1.00
C5       0.14597    0.15918    0.85857   1.00
H2       0.15579    0.14176    0.88410   1.00
C5       0.10498    0.17547    0.86709   1.00
H2       0.16565    0.18493    0.85472   1.00
C5       0.16748    0.00983    0.65372   1.00
H2       0.16457    -0.01215   0.62995   1.00
H2       0.19092    0.03048    0.64471   1.00
C5       0.12888    0.03200    0.65982   1.00
C5       0.11389    0.04775    0.62052   1.00
H2       0.35783    -0.19286   0.90359   1.00
H2       0.40799    -0.18447   0.88453   1.00
H2       0.37977    -0.14323   0.90578   1.00
H2       0.37889    -0.03105   0.56827   1.00
H2       0.40938    -0.00551   0.60525   1.00
H2       0.38591    -0.05293   0.61748   1.00
H2       0.10763    0.20613    0.87969   1.00
H2       0.08741    0.17656    0.83888   1.00
H2       0.08956    0.15577    0.88900   1.00
H2       0.13732    0.04366    0.59727   1.00
H2       0.08646    0.03116    0.61166   1.00
H2       0.10678    0.08010    0.62352   1.00
C5       0.35056    0.32721    0.36782   1.00
H2       0.35904    0.29993    0.35255   1.00
H2       0.37427    0.33319    0.38910   1.00
C5       0.34741    0.36072    0.33806   1.00
C5       0.38796    0.37768    0.32877   1.00
H2       0.32849    0.38434    0.34985   1.00
O3       0.21710    0.31271    0.52000   1.00
C4       0.24997    0.24958    0.47900   1.00
C3c      0.28121    0.26520    0.45757   1.00
H1       0.30599    0.27747    0.47275   1.00
C3d      0.21821    0.23323    0.45865   1.00
C3       0.28081    0.26579    0.41646   1.00
O2       0.31435    0.27714    0.39752   1.00
C3       0.21739    0.23445    0.41773   1.00
H1       0.19179    0.22281    0.40343   1.00
C2       0.24854    0.25052    0.39561   1.00
C5       0.17594    0.31116    0.52121   1.00
H2       0.16448    0.31251    0.55162   1.00
H2       0.16483    0.28387    0.50734   1.00
C5       0.16047    0.34628    0.49871   1.00
H2       0.17280    0.34553    0.46863   1.00
H2       0.17144    0.37335    0.51302   1.00
C5       0.11556    0.34609    0.49738   1.00
H2       0.10305    0.34656    0.52732   1.00
H2       0.10461    0.31974    0.48189   1.00
C5       0.10067    0.38243    0.47555   1.00
C5       0.19069    0.18075    0.48895   1.00
C5       0.31281    0.31755    0.38930   1.00
H2       0.21587    0.17724    0.50912   1.00
H2       0.19549    0.16184    0.46288   1.00
H2       0.31091    0.33456    0.41700   1.00
H2       0.28697    0.32562    0.37105   1.00
H2       0.33514    0.35024    0.30970   1.00
H2       0.17965    0.13293    0.55753   1.00
H2       0.17212    0.10614    0.51237   1.00
C2       0.24748    0.25091    0.60395   1.00
C3       0.26596    0.21995    0.58403   1.00
O2       0.27459    0.18565    0.60326   1.00
C3       0.23177    0.28198    0.58174   1.00
H1       0.21834    0.30660    0.59615   1.00
C3a      0.26744    0.22017    0.54287   1.00
H1       0.27970    0.19520    0.52798   1.00
C3b      0.23218    0.28151    0.54078   1.00
C4       0.25003    0.25042    0.52100   1.00
O3       0.18546    0.22018    0.47833   1.00
C5       0.31462    0.18435    0.61280   1.00
H2       0.33321    0.18615    0.58609   1.00
C5       0.32189    0.14552    0.63326   1.00
H2       0.32264    0.20877    0.63274   1.00
H2       0.32416    0.12226    0.61068   1.00
H2       0.29546    0.13873    0.65093   1.00
C5       0.35857    0.14597    0.65918   1.00
H2       0.38410    0.15579    0.64176   1.00
C5       0.36709    0.10498    0.67547   1.00
H2       0.35472    0.16565    0.68493   1.00
C5       0.15372    0.16748    0.50983   1.00
H2       0.12995    0.16457    0.48785   1.00
H2       0.14471    0.19092    0.53048   1.00
C5       0.15982    0.12888    0.53200   1.00
C5       0.12052    0.11389    0.54775   1.00
H2       0.40359    0.35783    0.30714   1.00
H2       0.38453    0.40799    0.31553   1.00
H2       0.40578    0.37977    0.35677   1.00
H2       0.06827    0.37889    0.46895   1.00
H2       0.10525    0.40938    0.49449   1.00
H2       0.11748    0.38591    0.44707   1.00
H2       0.37969    0.10763    0.70613   1.00
H2       0.33888    0.08741    0.67656   1.00
H2       0.38900    0.08956    0.65577   1.00
H2       0.09727    0.13732    0.54366   1.00
H2       0.11166    0.08646    0.53116   1.00
H2       0.12352    0.10678    0.58010   1.00
C5       0.35056    0.67279    0.63218   1.00
H2       0.35904    0.70007    0.64745   1.00
H2       0.37427    0.66681    0.61090   1.00
C5       0.34741    0.63928    0.66194   1.00
C5       0.38796    0.62232    0.67123   1.00
H2       0.32849    0.61566    0.65015   1.00
O3       0.21710    0.68729    0.48000   1.00
C4       0.24997    0.75042    0.52100   1.00
C3c      0.28121    0.73480    0.54243   1.00
H1       0.30599    0.72253    0.52725   1.00
C3d      0.21821    0.76677    0.54135   1.00
C3       0.28081    0.73421    0.58354   1.00
O2       0.31435    0.72286    0.60248   1.00
C3       0.21739    0.76555    0.58227   1.00
H1       0.19179    0.77719    0.59657   1.00
C2       0.24854    0.74948    0.60439   1.00
C5       0.17594    0.68884    0.47879   1.00
H2       0.16448    0.68749    0.44838   1.00
H2       0.16483    0.71613    0.49266   1.00
C5       0.16047    0.65372    0.50129   1.00
H2       0.17280    0.65447    0.53137   1.00
H2       0.17144    0.62665    0.48698   1.00
C5       0.11556    0.65391    0.50262   1.00
H2       0.10305    0.65344    0.47268   1.00
H2       0.10461    0.68026    0.51811   1.00
C5       0.10067    0.61757    0.52445   1.00
C5       0.19069    0.81925    0.51105   1.00
C5       0.31281    0.68245    0.61070   1.00
H2       0.21587    0.82276    0.49088   1.00
H2       0.19549    0.83816    0.53712   1.00
H2       0.31091    0.66544    0.58300   1.00
H2       0.28697    0.67438    0.62895   1.00
H2       0.33514    0.64976    0.69030   1.00
H2       0.17965    0.86707    0.44247   1.00
H2       0.17212    0.89386    0.48763   1.00
C2       0.24748    0.74909    0.39605   1.00
C3       0.26596    0.78005    0.41597   1.00
O2       0.27459    0.81435    0.39674   1.00
C3       0.23177    0.71802    0.41826   1.00
H1       0.21834    0.69340    0.40385   1.00
C3a      0.26744    0.77983    0.45713   1.00
H1       0.27970    0.80480    0.47202   1.00
C3b      0.23218    0.71849    0.45922   1.00
C4       0.25003    0.74958    0.47900   1.00
O3       0.18546    0.77982    0.52167   1.00
C5       0.31462    0.81565    0.38720   1.00
H2       0.33321    0.81385    0.41391   1.00
C5       0.32189    0.85448    0.36674   1.00
H2       0.32264    0.79123    0.36726   1.00
H2       0.32416    0.87774    0.38932   1.00
H2       0.29546    0.86127    0.34907   1.00
C5       0.35857    0.85403    0.34082   1.00
H2       0.38410    0.84421    0.35824   1.00
C5       0.36709    0.89502    0.32453   1.00
H2       0.35472    0.83435    0.31507   1.00
C5       0.15372    0.83252    0.49017   1.00
H2       0.12995    0.83543    0.51215   1.00
H2       0.14471    0.80908    0.46952   1.00
C5       0.15982    0.87112    0.46800   1.00
C5       0.12052    0.88611    0.45225   1.00
H2       0.40359    0.64217    0.69286   1.00
H2       0.38453    0.59201    0.68447   1.00
H2       0.40578    0.62023    0.64323   1.00
H2       0.06827    0.62111    0.53105   1.00
H2       0.10525    0.59062    0.50551   1.00
H2       0.11748    0.61409    0.55293   1.00
H2       0.37969    0.89237    0.29387   1.00
H2       0.33888    0.91259    0.32344   1.00
H2       0.38900    0.91044    0.34423   1.00
H2       0.09727    0.86268    0.45634   1.00
H2       0.11166    0.91354    0.46884   1.00
H2       0.12352    0.89322    0.41990   1.00
C5       0.17279    1.13218    0.35056   1.00
H2       0.20007    1.14745    0.35904   1.00
H2       0.16681    1.11090    0.37427   1.00
C5       0.13928    1.16194    0.34741   1.00
C5       0.12232    1.17123    0.38796   1.00
H2       0.11566    1.15015    0.32849   1.00
O3       0.18729    0.98000    0.21710   1.00
C4       0.25042    1.02100    0.24997   1.00
C3c      0.23480    1.04243    0.28121   1.00
H1       0.22253    1.02725    0.30599   1.00
C3d      0.26677    1.04135    0.21821   1.00
C3       0.23421    1.08354    0.28081   1.00
O2       0.22286    1.10248    0.31435   1.00
C3       0.26555    1.08227    0.21739   1.00
H1       0.27719    1.09657    0.19179   1.00
C2       0.24948    1.10439    0.24854   1.00
C5       0.18884    0.97879    0.17594   1.00
H2       0.18749    0.94838    0.16448   1.00
H2       0.21613    0.99266    0.16483   1.00
C5       0.15372    1.00129    0.16047   1.00
H2       0.15447    1.03137    0.17280   1.00
H2       0.12665    0.98698    0.17144   1.00
C5       0.15391    1.00262    0.11556   1.00
H2       0.15344    0.97268    0.10305   1.00
H2       0.18026    1.01811    0.10461   1.00
C5       0.11757    1.02445    0.10067   1.00
C5       0.31925    1.01105    0.19069   1.00
C5       0.18245    1.11070    0.31281   1.00
H2       0.32276    0.99088    0.21587   1.00
H2       0.33816    1.03712    0.19549   1.00
H2       0.16544    1.08300    0.31091   1.00
H2       0.17438    1.12895    0.28697   1.00
H2       0.14976    1.19030    0.33514   1.00
H2       0.36707    0.94247    0.17965   1.00
H2       0.39386    0.98763    0.17212   1.00
C2       0.24909    0.89605    0.24748   1.00
C3       0.28005    0.91597    0.26596   1.00
O2       0.31435    0.89674    0.27459   1.00
C3       0.21802    0.91826    0.23177   1.00
H1       0.19340    0.90385    0.21834   1.00
C3a      0.27983    0.95713    0.26744   1.00
H1       0.30480    0.97202    0.27970   1.00
C3b      0.21849    0.95922    0.23218   1.00
C4       0.24958    0.97900    0.25003   1.00
O3       0.27982    1.02167    0.18546   1.00
C5       0.31565    0.88720    0.31462   1.00
H2       0.31385    0.91391    0.33321   1.00
C5       0.35448    0.86674    0.32189   1.00
H2       0.29123    0.86726    0.32264   1.00
H2       0.37774    0.88932    0.32416   1.00
H2       0.36127    0.84907    0.29546   1.00
C5       0.35403    0.84082    0.35857   1.00
H2       0.34421    0.85824    0.38410   1.00
C5       0.39502    0.82453    0.36709   1.00
H2       0.33435    0.81507    0.35472   1.00
C5       0.33252    0.99017    0.15372   1.00
H2       0.33543    1.01215    0.12995   1.00
H2       0.30908    0.96952    0.14471   1.00
C5       0.37112    0.96800    0.15982   1.00
C5       0.38611    0.95225    0.12052   1.00
H2       0.14217    1.19286    0.40359   1.00
H2       0.09201    1.18447    0.38453   1.00
H2       0.12023    1.14323    0.40578   1.00
H2       0.12111    1.03105    0.06827   1.00
H2       0.09062    1.00551    0.10525   1.00
H2       0.11409    1.05293    0.11748   1.00
H2       0.39237    0.79387    0.37969   1.00
H2       0.41259    0.82344    0.33888   1.00
H2       0.41044    0.84423    0.38900   1.00
H2       0.36268    0.95634    0.09727   1.00
H2       0.41354    0.96884    0.11166   1.00
H2       0.39322    0.91990    0.12352   1.00
C5       -0.13218   0.85056    0.32721   1.00
H2       -0.14745   0.85904    0.29993   1.00
H2       -0.11090   0.87427    0.33319   1.00
C5       -0.16194   0.84741    0.36072   1.00
C5       -0.17123   0.88796    0.37768   1.00
H2       -0.15015   0.82849    0.38434   1.00
O3       0.02000    0.71710    0.31271   1.00
C4       -0.02100   0.74997    0.24958   1.00
C3c      -0.04243   0.78121    0.26520   1.00
H1       -0.02725   0.80599    0.27747   1.00
C3d      -0.04135   0.71821    0.23323   1.00
C3       -0.08354   0.78081    0.26579   1.00
O2       -0.10248   0.81435    0.27714   1.00
C3       -0.08227   0.71739    0.23445   1.00
H1       -0.09657   0.69179    0.22281   1.00
C2       -0.10439   0.74854    0.25052   1.00
C5       0.02121    0.67594    0.31116   1.00
H2       0.05162    0.66448    0.31251   1.00
H2       0.00734    0.66483    0.28387   1.00
C5       -0.00129   0.66047    0.34628   1.00
H2       -0.03137   0.67280    0.34553   1.00
H2       0.01302    0.67144    0.37335   1.00
C5       -0.00262   0.61556    0.34609   1.00
H2       0.02732    0.60305    0.34656   1.00
H2       -0.01811   0.60461    0.31974   1.00
C5       -0.02445   0.60067    0.38243   1.00
C5       -0.01105   0.69069    0.18075   1.00
C5       -0.11070   0.81281    0.31755   1.00
H2       0.00912    0.71587    0.17724   1.00
H2       -0.03712   0.69549    0.16184   1.00
H2       -0.08300   0.81091    0.33456   1.00
H2       -0.12895   0.78697    0.32562   1.00
H2       -0.19030   0.83514    0.35024   1.00
H2       0.05753    0.67965    0.13293   1.00
H2       0.01237    0.67212    0.10614   1.00
C2       0.10395    0.74748    0.25091   1.00
C3       0.08403    0.76596    0.21995   1.00
O2       0.10326    0.77459    0.18565   1.00
C3       0.08174    0.73177    0.28198   1.00
H1       0.09615    0.71834    0.30660   1.00
C3a      0.04287    0.76744    0.22017   1.00
H1       0.02798    0.77970    0.19520   1.00
C3b      0.04078    0.73218    0.28151   1.00
C4       0.02100    0.75003    0.25042   1.00
O3       -0.02167   0.68546    0.22018   1.00
C5       0.11280    0.81462    0.18435   1.00
H2       0.08609    0.83321    0.18615   1.00
C5       0.13326    0.82189    0.14552   1.00
H2       0.13274    0.82264    0.20877   1.00
H2       0.11068    0.82416    0.12226   1.00
H2       0.15093    0.79546    0.13873   1.00
C5       0.15918    0.85857    0.14597   1.00
H2       0.14176    0.88410    0.15579   1.00
C5       0.17547    0.86709    0.10498   1.00
H2       0.18493    0.85472    0.16565   1.00
C5       0.00983    0.65372    0.16748   1.00
H2       -0.01215   0.62995    0.16457   1.00
H2       0.03048    0.64471    0.19092   1.00
C5       0.03200    0.65982    0.12888   1.00
C5       0.04775    0.62052    0.11389   1.00
H2       -0.19286   0.90359    0.35783   1.00
H2       -0.18447   0.88453    0.40799   1.00
H2       -0.14323   0.90578    0.37977   1.00
H2       -0.03105   0.56827    0.37889   1.00
H2       -0.00551   0.60525    0.40938   1.00
H2       -0.05293   0.61748    0.38591   1.00
H2       0.20613    0.87969    0.10763   1.00
H2       0.17656    0.83888    0.08741   1.00
H2       0.15577    0.88900    0.08956   1.00
H2       0.04366    0.59727    0.13732   1.00
H2       0.03116    0.61166    0.08646   1.00
H2       0.08010    0.62352    0.10678   1.00
C5       0.63218    0.85056    0.17279   1.00
H2       0.64745    0.85904    0.20007   1.00
H2       0.61090    0.87427    0.16681   1.00
C5       0.66194    0.84741    0.13928   1.00
C5       0.67123    0.88796    0.12232   1.00
H2       0.65015    0.82849    0.11566   1.00
O3       0.48000    0.71710    0.18729   1.00
C4       0.52100    0.74997    0.25042   1.00
C3c      0.54243    0.78121    0.23480   1.00
H1       0.52725    0.80599    0.22253   1.00
C3d      0.54135    0.71821    0.26677   1.00
C3       0.58354    0.78081    0.23421   1.00
O2       0.60248    0.81435    0.22286   1.00
C3       0.58227    0.71739    0.26555   1.00
H1       0.59657    0.69179    0.27719   1.00
C2       0.60439    0.74854    0.24948   1.00
C5       0.47879    0.67594    0.18884   1.00
H2       0.44838    0.66448    0.18749   1.00
H2       0.49266    0.66483    0.21613   1.00
C5       0.50129    0.66047    0.15372   1.00
H2       0.53137    0.67280    0.15447   1.00
H2       0.48698    0.67144    0.12665   1.00
C5       0.50262    0.61556    0.15391   1.00
H2       0.47268    0.60305    0.15344   1.00
H2       0.51811    0.60461    0.18026   1.00
C5       0.52445    0.60067    0.11757   1.00
C5       0.51105    0.69069    0.31925   1.00
C5       0.61070    0.81281    0.18245   1.00
H2       0.49088    0.71587    0.32276   1.00
H2       0.53712    0.69549    0.33816   1.00
H2       0.58300    0.81091    0.16544   1.00
H2       0.62895    0.78697    0.17438   1.00
H2       0.69030    0.83514    0.14976   1.00
H2       0.44247    0.67965    0.36707   1.00
H2       0.48763    0.67212    0.39386   1.00
C2       0.39605    0.74748    0.24909   1.00
C3       0.41597    0.76596    0.28005   1.00
O2       0.39674    0.77459    0.31435   1.00
C3       0.41826    0.73177    0.21802   1.00
H1       0.40385    0.71834    0.19340   1.00
C3a      0.45713    0.76744    0.27983   1.00
H1       0.47202    0.77970    0.30480   1.00
C3b      0.45922    0.73218    0.21849   1.00
C4       0.47900    0.75003    0.24958   1.00
O3       0.52167    0.68546    0.27982   1.00
C5       0.38720    0.81462    0.31565   1.00
H2       0.41391    0.83321    0.31385   1.00
C5       0.36674    0.82189    0.35448   1.00
H2       0.36726    0.82264    0.29123   1.00
H2       0.38932    0.82416    0.37774   1.00
H2       0.34907    0.79546    0.36127   1.00
C5       0.34082    0.85857    0.35403   1.00
H2       0.35824    0.88410    0.34421   1.00
C5       0.32453    0.86709    0.39502   1.00
H2       0.31507    0.85472    0.33435   1.00
C5       0.49017    0.65372    0.33252   1.00
H2       0.51215    0.62995    0.33543   1.00
H2       0.46952    0.64471    0.30908   1.00
C5       0.46800    0.65982    0.37112   1.00
C5       0.45225    0.62052    0.38611   1.00
H2       0.69286    0.90359    0.14217   1.00
H2       0.68447    0.88453    0.09201   1.00
H2       0.64323    0.90578    0.12023   1.00
H2       0.53105    0.56827    0.12111   1.00
H2       0.50551    0.60525    0.09062   1.00
H2       0.55293    0.61748    0.11409   1.00
H2       0.29387    0.87969    0.39237   1.00
H2       0.32344    0.83888    0.41259   1.00
H2       0.34423    0.88900    0.41044   1.00
H2       0.45634    0.59727    0.36268   1.00
H2       0.46884    0.61166    0.41354   1.00
H2       0.41990    0.62352    0.39322   1.00
C5       0.32721    0.36782    0.35056   1.00
H2       0.29993    0.35255    0.35904   1.00
H2       0.33319    0.38910    0.37427   1.00
C5       0.36072    0.33806    0.34741   1.00
C5       0.37768    0.32877    0.38796   1.00
H2       0.38434    0.34985    0.32849   1.00
O3       0.31271    0.52000    0.21710   1.00
C4       0.24958    0.47900    0.24997   1.00
C3c      0.26520    0.45757    0.28121   1.00
H1       0.27747    0.47275    0.30599   1.00
C3d      0.23323    0.45865    0.21821   1.00
C3       0.26579    0.41646    0.28081   1.00
O2       0.27714    0.39752    0.31435   1.00
C3       0.23445    0.41773    0.21739   1.00
H1       0.22281    0.40343    0.19179   1.00
C2       0.25052    0.39561    0.24854   1.00
C5       0.31116    0.52121    0.17594   1.00
H2       0.31251    0.55162    0.16448   1.00
H2       0.28387    0.50734    0.16483   1.00
C5       0.34628    0.49871    0.16047   1.00
H2       0.34553    0.46863    0.17280   1.00
H2       0.37335    0.51302    0.17144   1.00
C5       0.34609    0.49738    0.11556   1.00
H2       0.34656    0.52732    0.10305   1.00
H2       0.31974    0.48189    0.10461   1.00
C5       0.38243    0.47555    0.10067   1.00
C5       0.18075    0.48895    0.19069   1.00
C5       0.31755    0.38930    0.31281   1.00
H2       0.17724    0.50912    0.21587   1.00
H2       0.16184    0.46288    0.19549   1.00
H2       0.33456    0.41700    0.31091   1.00
H2       0.32562    0.37105    0.28697   1.00
H2       0.35024    0.30970    0.33514   1.00
H2       0.13293    0.55753    0.17965   1.00
H2       0.10614    0.51237    0.17212   1.00
C2       0.25091    0.60395    0.24748   1.00
C3       0.21995    0.58403    0.26596   1.00
O2       0.18565    0.60326    0.27459   1.00
C3       0.28198    0.58174    0.23177   1.00
H1       0.30660    0.59615    0.21834   1.00
C3a      0.22017    0.54287    0.26744   1.00
H1       0.19520    0.52798    0.27970   1.00
C3b      0.28151    0.54078    0.23218   1.00
C4       0.25042    0.52100    0.25003   1.00
O3       0.22018    0.47833    0.18546   1.00
C5       0.18435    0.61280    0.31462   1.00
H2       0.18615    0.58609    0.33321   1.00
C5       0.14552    0.63326    0.32189   1.00
H2       0.20877    0.63274    0.32264   1.00
H2       0.12226    0.61068    0.32416   1.00
H2       0.13873    0.65093    0.29546   1.00
C5       0.14597    0.65918    0.35857   1.00
H2       0.15579    0.64176    0.38410   1.00
C5       0.10498    0.67547    0.36709   1.00
H2       0.16565    0.68493    0.35472   1.00
C5       0.16748    0.50983    0.15372   1.00
H2       0.16457    0.48785    0.12995   1.00
H2       0.19092    0.53048    0.14471   1.00
C5       0.12888    0.53200    0.15982   1.00
C5       0.11389    0.54775    0.12052   1.00
H2       0.35783    0.30714    0.40359   1.00
H2       0.40799    0.31553    0.38453   1.00
H2       0.37977    0.35677    0.40578   1.00
H2       0.37889    0.46895    0.06827   1.00
H2       0.40938    0.49449    0.10525   1.00
H2       0.38591    0.44707    0.11748   1.00
H2       0.10763    0.70613    0.37969   1.00
H2       0.08741    0.67656    0.33888   1.00
H2       0.08956    0.65577    0.38900   1.00
H2       0.13732    0.54366    0.09727   1.00
H2       0.08646    0.53116    0.11166   1.00
H2       0.10678    0.58010    0.12352   1.00
C5       0.35056    0.82721    -0.13218   1.00
H2       0.35904    0.79993    -0.14745   1.00
H2       0.37427    0.83319    -0.11090   1.00
C5       0.34741    0.86072    -0.16194   1.00
C5       0.38796    0.87768    -0.17123   1.00
H2       0.32849    0.88434    -0.15015   1.00
O3       0.21710    0.81271    0.02000   1.00
C4       0.24997    0.74958    -0.02100   1.00
C3c      0.28121    0.76520    -0.04243   1.00
H1       0.30599    0.77747    -0.02725   1.00
C3d      0.21821    0.73323    -0.04135   1.00
C3       0.28081    0.76579    -0.08354   1.00
O2       0.31435    0.77714    -0.10248   1.00
C3       0.21739    0.73445    -0.08227   1.00
H1       0.19179    0.72281    -0.09657   1.00
C2       0.24854    0.75052    -0.10439   1.00
C5       0.17594    0.81116    0.02121   1.00
H2       0.16448    0.81251    0.05162   1.00
H2       0.16483    0.78387    0.00734   1.00
C5       0.16047    0.84628    -0.00129   1.00
H2       0.17280    0.84553    -0.03137   1.00
H2       0.17144    0.87335    0.01302   1.00
C5       0.11556    0.84609    -0.00262   1.00
H2       0.10305    0.84656    0.02732   1.00
H2       0.10461    0.81974    -0.01811   1.00
C5       0.10067    0.88243    -0.02445   1.00
C5       0.19069    0.68075    -0.01105   1.00
C5       0.31281    0.81755    -0.11070   1.00
H2       0.21587    0.67724    0.00912   1.00
H2       0.19549    0.66184    -0.03712   1.00
H2       0.31091    0.83456    -0.08300   1.00
H2       0.28697    0.82562    -0.12895   1.00
H2       0.33514    0.85024    -0.19030   1.00
H2       0.17965    0.63293    0.05753   1.00
H2       0.17212    0.60614    0.01237   1.00
C2       0.24748    0.75091    0.10395   1.00
C3       0.26596    0.71995    0.08403   1.00
O2       0.27459    0.68565    0.10326   1.00
C3       0.23177    0.78198    0.08174   1.00
H1       0.21834    0.80660    0.09615   1.00
C3a      0.26744    0.72017    0.04287   1.00
H1       0.27970    0.69520    0.02798   1.00
C3b      0.23218    0.78151    0.04078   1.00
C4       0.25003    0.75042    0.02100   1.00
O3       0.18546    0.72018    -0.02167   1.00
C5       0.31462    0.68435    0.11280   1.00
H2       0.33321    0.68615    0.08609   1.00
C5       0.32189    0.64552    0.13326   1.00
H2       0.32264    0.70877    0.13274   1.00
H2       0.32416    0.62226    0.11068   1.00
H2       0.29546    0.63873    0.15093   1.00
C5       0.35857    0.64597    0.15918   1.00
H2       0.38410    0.65579    0.14176   1.00
C5       0.36709    0.60498    0.17547   1.00
H2       0.35472    0.66565    0.18493   1.00
C5       0.15372    0.66748    0.00983   1.00
H2       0.12995    0.66457    -0.01215   1.00
H2       0.14471    0.69092    0.03048   1.00
C5       0.15982    0.62888    0.03200   1.00
C5       0.12052    0.61389    0.04775   1.00
H2       0.40359    0.85783    -0.19286   1.00
H2       0.38453    0.90799    -0.18447   1.00
H2       0.40578    0.87977    -0.14323   1.00
H2       0.06827    0.87889    -0.03105   1.00
H2       0.10525    0.90938    -0.00551   1.00
H2       0.11748    0.88591    -0.05293   1.00
H2       0.37969    0.60763    0.20613   1.00
H2       0.33888    0.58741    0.17656   1.00
H2       0.38900    0.58956    0.15577   1.00
H2       0.09727    0.63732    0.04366   1.00
H2       0.11166    0.58646    0.03116   1.00
H2       0.12352    0.60678    0.08010   1.00
C5       0.85056    0.17279    0.63218   1.00
H2       0.85904    0.20007    0.64745   1.00
H2       0.87427    0.16681    0.61090   1.00
C5       0.84741    0.13928    0.66194   1.00
C5       0.88796    0.12232    0.67123   1.00
H2       0.82849    0.11566    0.65015   1.00
O3       0.71710    0.18729    0.48000   1.00
C4       0.74997    0.25042    0.52100   1.00
C3c      0.78121    0.23480    0.54243   1.00
H1       0.80599    0.22253    0.52725   1.00
C3d      0.71821    0.26677    0.54135   1.00
C3       0.78081    0.23421    0.58354   1.00
O2       0.81435    0.22286    0.60248   1.00
C3       0.71739    0.26555    0.58227   1.00
H1       0.69179    0.27719    0.59657   1.00
C2       0.74854    0.24948    0.60439   1.00
C5       0.67594    0.18884    0.47879   1.00
H2       0.66448    0.18749    0.44838   1.00
H2       0.66483    0.21613    0.49266   1.00
C5       0.66047    0.15372    0.50129   1.00
H2       0.67280    0.15447    0.53137   1.00
H2       0.67144    0.12665    0.48698   1.00
C5       0.61556    0.15391    0.50262   1.00
H2       0.60305    0.15344    0.47268   1.00
H2       0.60461    0.18026    0.51811   1.00
C5       0.60067    0.11757    0.52445   1.00
C5       0.69069    0.31925    0.51105   1.00
C5       0.81281    0.18245    0.61070   1.00
H2       0.71587    0.32276    0.49088   1.00
H2       0.69549    0.33816    0.53712   1.00
H2       0.81091    0.16544    0.58300   1.00
H2       0.78697    0.17438    0.62895   1.00
H2       0.83514    0.14976    0.69030   1.00
H2       0.67965    0.36707    0.44247   1.00
H2       0.67212    0.39386    0.48763   1.00
C2       0.74748    0.24909    0.39605   1.00
C3       0.76596    0.28005    0.41597   1.00
O2       0.77459    0.31435    0.39674   1.00
C3       0.73177    0.21802    0.41826   1.00
H1       0.71834    0.19340    0.40385   1.00
C3a      0.76744    0.27983    0.45713   1.00
H1       0.77970    0.30480    0.47202   1.00
C3b      0.73218    0.21849    0.45922   1.00
C4       0.75003    0.24958    0.47900   1.00
O3       0.68546    0.27982    0.52167   1.00
C5       0.81462    0.31565    0.38720   1.00
H2       0.83321    0.31385    0.41391   1.00
C5       0.82189    0.35448    0.36674   1.00
H2       0.82264    0.29123    0.36726   1.00
H2       0.82416    0.37774    0.38932   1.00
H2       0.79546    0.36127    0.34907   1.00
C5       0.85857    0.35403    0.34082   1.00
H2       0.88410    0.34421    0.35824   1.00
C5       0.86709    0.39502    0.32453   1.00
H2       0.85472    0.33435    0.31507   1.00
C5       0.65372    0.33252    0.49017   1.00
H2       0.62995    0.33543    0.51215   1.00
H2       0.64471    0.30908    0.46952   1.00
C5       0.65982    0.37112    0.46800   1.00
C5       0.62052    0.38611    0.45225   1.00
H2       0.90359    0.14217    0.69286   1.00
H2       0.88453    0.09201    0.68447   1.00
H2       0.90578    0.12023    0.64323   1.00
H2       0.56827    0.12111    0.53105   1.00
H2       0.60525    0.09062    0.50551   1.00
H2       0.61748    0.11409    0.55293   1.00
H2       0.87969    0.39237    0.29387   1.00
H2       0.83888    0.41259    0.32344   1.00
H2       0.88900    0.41044    0.34423   1.00
H2       0.59727    0.36268    0.45634   1.00
H2       0.61166    0.41354    0.46884   1.00
H2       0.62352    0.39322    0.41990   1.00
C5       0.67279    0.63218    0.35056   1.00
H2       0.70007    0.64745    0.35904   1.00
H2       0.66681    0.61090    0.37427   1.00
C5       0.63928    0.66194    0.34741   1.00
C5       0.62232    0.67123    0.38796   1.00
H2       0.61566    0.65015    0.32849   1.00
O3       0.68729    0.48000    0.21710   1.00
C4       0.75042    0.52100    0.24997   1.00
C3c      0.73480    0.54243    0.28121   1.00
H1       0.72253    0.52725    0.30599   1.00
C3d      0.76677    0.54135    0.21821   1.00
C3       0.73421    0.58354    0.28081   1.00
O2       0.72286    0.60248    0.31435   1.00
C3       0.76555    0.58227    0.21739   1.00
H1       0.77719    0.59657    0.19179   1.00
C2       0.74948    0.60439    0.24854   1.00
C5       0.68884    0.47879    0.17594   1.00
H2       0.68749    0.44838    0.16448   1.00
H2       0.71613    0.49266    0.16483   1.00
C5       0.65372    0.50129    0.16047   1.00
H2       0.65447    0.53137    0.17280   1.00
H2       0.62665    0.48698    0.17144   1.00
C5       0.65391    0.50262    0.11556   1.00
H2       0.65344    0.47268    0.10305   1.00
H2       0.68026    0.51811    0.10461   1.00
C5       0.61757    0.52445    0.10067   1.00
C5       0.81925    0.51105    0.19069   1.00
C5       0.68245    0.61070    0.31281   1.00
H2       0.82276    0.49088    0.21587   1.00
H2       0.83816    0.53712    0.19549   1.00
H2       0.66544    0.58300    0.31091   1.00
H2       0.67438    0.62895    0.28697   1.00
H2       0.64976    0.69030    0.33514   1.00
H2       0.86707    0.44247    0.17965   1.00
H2       0.89386    0.48763    0.17212   1.00
C2       0.74909    0.39605    0.24748   1.00
C3       0.78005    0.41597    0.26596   1.00
O2       0.81435    0.39674    0.27459   1.00
C3       0.71802    0.41826    0.23177   1.00
H1       0.69340    0.40385    0.21834   1.00
C3a      0.77983    0.45713    0.26744   1.00
H1       0.80480    0.47202    0.27970   1.00
C3b      0.71849    0.45922    0.23218   1.00
C4       0.74958    0.47900    0.25003   1.00
O3       0.77982    0.52167    0.18546   1.00
C5       0.81565    0.38720    0.31462   1.00
H2       0.81385    0.41391    0.33321   1.00
C5       0.85448    0.36674    0.32189   1.00
H2       0.79123    0.36726    0.32264   1.00
H2       0.87774    0.38932    0.32416   1.00
H2       0.86127    0.34907    0.29546   1.00
C5       0.85403    0.34082    0.35857   1.00
H2       0.84421    0.35824    0.38410   1.00
C5       0.89502    0.32453    0.36709   1.00
H2       0.83435    0.31507    0.35472   1.00
C5       0.83252    0.49017    0.15372   1.00
H2       0.83543    0.51215    0.12995   1.00
H2       0.80908    0.46952    0.14471   1.00
C5       0.87112    0.46800    0.15982   1.00
C5       0.88611    0.45225    0.12052   1.00
H2       0.64217    0.69286    0.40359   1.00
H2       0.59201    0.68447    0.38453   1.00
H2       0.62023    0.64323    0.40578   1.00
H2       0.62111    0.53105    0.06827   1.00
H2       0.59062    0.50551    0.10525   1.00
H2       0.61409    0.55293    0.11748   1.00
H2       0.89237    0.29387    0.37969   1.00
H2       0.91259    0.32344    0.33888   1.00
H2       0.91044    0.34423    0.38900   1.00
H2       0.86268    0.45634    0.09727   1.00
H2       0.91354    0.46884    0.11166   1.00
H2       0.89322    0.41990    0.12352   1.00
C5       0.36782    0.35056    0.32721   1.00
H2       0.35255    0.35904    0.29993   1.00
H2       0.38910    0.37427    0.33319   1.00
C5       0.33806    0.34741    0.36072   1.00
C5       0.32877    0.38796    0.37768   1.00
H2       0.34985    0.32849    0.38434   1.00
O3       0.52000    0.21710    0.31271   1.00
C4       0.47900    0.24997    0.24958   1.00
C3c      0.45757    0.28121    0.26520   1.00
H1       0.47275    0.30599    0.27747   1.00
C3d      0.45865    0.21821    0.23323   1.00
C3       0.41646    0.28081    0.26579   1.00
O2       0.39752    0.31435    0.27714   1.00
C3       0.41773    0.21739    0.23445   1.00
H1       0.40343    0.19179    0.22281   1.00
C2       0.39561    0.24854    0.25052   1.00
C5       0.52121    0.17594    0.31116   1.00
H2       0.55162    0.16448    0.31251   1.00
H2       0.50734    0.16483    0.28387   1.00
C5       0.49871    0.16047    0.34628   1.00
H2       0.46863    0.17280    0.34553   1.00
H2       0.51302    0.17144    0.37335   1.00
C5       0.49738    0.11556    0.34609   1.00
H2       0.52732    0.10305    0.34656   1.00
H2       0.48189    0.10461    0.31974   1.00
C5       0.47555    0.10067    0.38243   1.00
C5       0.48895    0.19069    0.18075   1.00
C5       0.38930    0.31281    0.31755   1.00
H2       0.50912    0.21587    0.17724   1.00
H2       0.46288    0.19549    0.16184   1.00
H2       0.41700    0.31091    0.33456   1.00
H2       0.37105    0.28697    0.32562   1.00
H2       0.30970    0.33514    0.35024   1.00
H2       0.55753    0.17965    0.13293   1.00
H2       0.51237    0.17212    0.10614   1.00
C2       0.60395    0.24748    0.25091   1.00
C3       0.58403    0.26596    0.21995   1.00
O2       0.60326    0.27459    0.18565   1.00
C3       0.58174    0.23177    0.28198   1.00
H1       0.59615    0.21834    0.30660   1.00
C3a      0.54287    0.26744    0.22017   1.00
H1       0.52798    0.27970    0.19520   1.00
C3b      0.54078    0.23218    0.28151   1.00
C4       0.52100    0.25003    0.25042   1.00
O3       0.47833    0.18546    0.22018   1.00
C5       0.61280    0.31462    0.18435   1.00
H2       0.58609    0.33321    0.18615   1.00
C5       0.63326    0.32189    0.14552   1.00
H2       0.63274    0.32264    0.20877   1.00
H2       0.61068    0.32416    0.12226   1.00
H2       0.65093    0.29546    0.13873   1.00
C5       0.65918    0.35857    0.14597   1.00
H2       0.64176    0.38410    0.15579   1.00
C5       0.67547    0.36709    0.10498   1.00
H2       0.68493    0.35472    0.16565   1.00
C5       0.50983    0.15372    0.16748   1.00
H2       0.48785    0.12995    0.16457   1.00
H2       0.53048    0.14471    0.19092   1.00
C5       0.53200    0.15982    0.12888   1.00
C5       0.54775    0.12052    0.11389   1.00
H2       0.30714    0.40359    0.35783   1.00
H2       0.31553    0.38453    0.40799   1.00
H2       0.35677    0.40578    0.37977   1.00
H2       0.46895    0.06827    0.37889   1.00
H2       0.49449    0.10525    0.40938   1.00
H2       0.44707    0.11748    0.38591   1.00
H2       0.70613    0.37969    0.10763   1.00
H2       0.67656    0.33888    0.08741   1.00
H2       0.65577    0.38900    0.08956   1.00
H2       0.54366    0.09727    0.13732   1.00
H2       0.53116    0.11166    0.08646   1.00
H2       0.58010    0.12352    0.10678   1.00
C5       1.13218    0.35056    0.17279   1.00
H2       1.14745    0.35904    0.20007   1.00
H2       1.11090    0.37427    0.16681   1.00
C5       1.16194    0.34741    0.13928   1.00
C5       1.17123    0.38796    0.12232   1.00
H2       1.15015    0.32849    0.11566   1.00
O3       0.98000    0.21710    0.18729   1.00
C4       1.02100    0.24997    0.25042   1.00
C3c      1.04243    0.28121    0.23480   1.00
H1       1.02725    0.30599    0.22253   1.00
C3d      1.04135    0.21821    0.26677   1.00
C3       1.08354    0.28081    0.23421   1.00
O2       1.10248    0.31435    0.22286   1.00
C3       1.08227    0.21739    0.26555   1.00
H1       1.09657    0.19179    0.27719   1.00
C2       1.10439    0.24854    0.24948   1.00
C5       0.97879    0.17594    0.18884   1.00
H2       0.94838    0.16448    0.18749   1.00
H2       0.99266    0.16483    0.21613   1.00
C5       1.00129    0.16047    0.15372   1.00
H2       1.03137    0.17280    0.15447   1.00
H2       0.98698    0.17144    0.12665   1.00
C5       1.00262    0.11556    0.15391   1.00
H2       0.97268    0.10305    0.15344   1.00
H2       1.01811    0.10461    0.18026   1.00
C5       1.02445    0.10067    0.11757   1.00
C5       1.01105    0.19069    0.31925   1.00
C5       1.11070    0.31281    0.18245   1.00
H2       0.99088    0.21587    0.32276   1.00
H2       1.03712    0.19549    0.33816   1.00
H2       1.08300    0.31091    0.16544   1.00
H2       1.12895    0.28697    0.17438   1.00
H2       1.19030    0.33514    0.14976   1.00
H2       0.94247    0.17965    0.36707   1.00
H2       0.98763    0.17212    0.39386   1.00
C2       0.89605    0.24748    0.24909   1.00
C3       0.91597    0.26596    0.28005   1.00
O2       0.89674    0.27459    0.31435   1.00
C3       0.91826    0.23177    0.21802   1.00
H1       0.90385    0.21834    0.19340   1.00
C3a      0.95713    0.26744    0.27983   1.00
H1       0.97202    0.27970    0.30480   1.00
C3b      0.95922    0.23218    0.21849   1.00
C4       0.97900    0.25003    0.24958   1.00
O3       1.02167    0.18546    0.27982   1.00
C5       0.88720    0.31462    0.31565   1.00
H2       0.91391    0.33321    0.31385   1.00
C5       0.86674    0.32189    0.35448   1.00
H2       0.86726    0.32264    0.29123   1.00
H2       0.88932    0.32416    0.37774   1.00
H2       0.84907    0.29546    0.36127   1.00
C5       0.84082    0.35857    0.35403   1.00
H2       0.85824    0.38410    0.34421   1.00
C5       0.82453    0.36709    0.39502   1.00
H2       0.81507    0.35472    0.33435   1.00
C5       0.99017    0.15372    0.33252   1.00
H2       1.01215    0.12995    0.33543   1.00
H2       0.96952    0.14471    0.30908   1.00
C5       0.96800    0.15982    0.37112   1.00
C5       0.95225    0.12052    0.38611   1.00
H2       1.19286    0.40359    0.14217   1.00
H2       1.18447    0.38453    0.09201   1.00
H2       1.14323    0.40578    0.12023   1.00
H2       1.03105    0.06827    0.12111   1.00
H2       1.00551    0.10525    0.09062   1.00
H2       1.05293    0.11748    0.11409   1.00
H2       0.79387    0.37969    0.39237   1.00
H2       0.82344    0.33888    0.41259   1.00
H2       0.84423    0.38900    0.41044   1.00
H2       0.95634    0.09727    0.36268   1.00
H2       0.96884    0.11166    0.41354   1.00
H2       0.91990    0.12352    0.39322   1.00
C5       0.82721    -0.13218   0.35056   1.00
H2       0.79993    -0.14745   0.35904   1.00
H2       0.83319    -0.11090   0.37427   1.00
C5       0.86072    -0.16194   0.34741   1.00
C5       0.87768    -0.17123   0.38796   1.00
H2       0.88434    -0.15015   0.32849   1.00
O3       0.81271    0.02000    0.21710   1.00
C4       0.74958    -0.02100   0.24997   1.00
C3c      0.76520    -0.04243   0.28121   1.00
H1       0.77747    -0.02725   0.30599   1.00
C3d      0.73323    -0.04135   0.21821   1.00
C3       0.76579    -0.08354   0.28081   1.00
O2       0.77714    -0.10248   0.31435   1.00
C3       0.73445    -0.08227   0.21739   1.00
H1       0.72281    -0.09657   0.19179   1.00
C2       0.75052    -0.10439   0.24854   1.00
C5       0.81116    0.02121    0.17594   1.00
H2       0.81251    0.05162    0.16448   1.00
H2       0.78387    0.00734    0.16483   1.00
C5       0.84628    -0.00129   0.16047   1.00
H2       0.84553    -0.03137   0.17280   1.00
H2       0.87335    0.01302    0.17144   1.00
C5       0.84609    -0.00262   0.11556   1.00
H2       0.84656    0.02732    0.10305   1.00
H2       0.81974    -0.01811   0.10461   1.00
C5       0.88243    -0.02445   0.10067   1.00
C5       0.68075    -0.01105   0.19069   1.00
C5       0.81755    -0.11070   0.31281   1.00
H2       0.67724    0.00912    0.21587   1.00
H2       0.66184    -0.03712   0.19549   1.00
H2       0.83456    -0.08300   0.31091   1.00
H2       0.82562    -0.12895   0.28697   1.00
H2       0.85024    -0.19030   0.33514   1.00
H2       0.63293    0.05753    0.17965   1.00
H2       0.60614    0.01237    0.17212   1.00
C2       0.75091    0.10395    0.24748   1.00
C3       0.71995    0.08403    0.26596   1.00
O2       0.68565    0.10326    0.27459   1.00
C3       0.78198    0.08174    0.23177   1.00
H1       0.80660    0.09615    0.21834   1.00
C3a      0.72017    0.04287    0.26744   1.00
H1       0.69520    0.02798    0.27970   1.00
C3b      0.78151    0.04078    0.23218   1.00
C4       0.75042    0.02100    0.25003   1.00
O3       0.72018    -0.02167   0.18546   1.00
C5       0.68435    0.11280    0.31462   1.00
H2       0.68615    0.08609    0.33321   1.00
C5       0.64552    0.13326    0.32189   1.00
H2       0.70877    0.13274    0.32264   1.00
H2       0.62226    0.11068    0.32416   1.00
H2       0.63873    0.15093    0.29546   1.00
C5       0.64597    0.15918    0.35857   1.00
H2       0.65579    0.14176    0.38410   1.00
C5       0.60498    0.17547    0.36709   1.00
H2       0.66565    0.18493    0.35472   1.00
C5       0.66748    0.00983    0.15372   1.00
H2       0.66457    -0.01215   0.12995   1.00
H2       0.69092    0.03048    0.14471   1.00
C5       0.62888    0.03200    0.15982   1.00
C5       0.61389    0.04775    0.12052   1.00
H2       0.85783    -0.19286   0.40359   1.00
H2       0.90799    -0.18447   0.38453   1.00
H2       0.87977    -0.14323   0.40578   1.00
H2       0.87889    -0.03105   0.06827   1.00
H2       0.90938    -0.00551   0.10525   1.00
H2       0.88591    -0.05293   0.11748   1.00
H2       0.60763    0.20613    0.37969   1.00
H2       0.58741    0.17656    0.33888   1.00
H2       0.58956    0.15577    0.38900   1.00
H2       0.63732    0.04366    0.09727   1.00
H2       0.58646    0.03116    0.11166   1.00
H2       0.60678    0.08010    0.12352   1.00
C5       0.85056    0.32721    -0.13218   1.00
H2       0.85904    0.29993    -0.14745   1.00
H2       0.87427    0.33319    -0.11090   1.00
C5       0.84741    0.36072    -0.16194   1.00
C5       0.88796    0.37768    -0.17123   1.00
H2       0.82849    0.38434    -0.15015   1.00
O3       0.71710    0.31271    0.02000   1.00
C4       0.74997    0.24958    -0.02100   1.00
C3c      0.78121    0.26520    -0.04243   1.00
H1       0.80599    0.27747    -0.02725   1.00
C3d      0.71821    0.23323    -0.04135   1.00
C3       0.78081    0.26579    -0.08354   1.00
O2       0.81435    0.27714    -0.10248   1.00
C3       0.71739    0.23445    -0.08227   1.00
H1       0.69179    0.22281    -0.09657   1.00
C2       0.74854    0.25052    -0.10439   1.00
C5       0.67594    0.31116    0.02121   1.00
H2       0.66448    0.31251    0.05162   1.00
H2       0.66483    0.28387    0.00734   1.00
C5       0.66047    0.34628    -0.00129   1.00
H2       0.67280    0.34553    -0.03137   1.00
H2       0.67144    0.37335    0.01302   1.00
C5       0.61556    0.34609    -0.00262   1.00
H2       0.60305    0.34656    0.02732   1.00
H2       0.60461    0.31974    -0.01811   1.00
C5       0.60067    0.38243    -0.02445   1.00
C5       0.69069    0.18075    -0.01105   1.00
C5       0.81281    0.31755    -0.11070   1.00
H2       0.71587    0.17724    0.00912   1.00
H2       0.69549    0.16184    -0.03712   1.00
H2       0.81091    0.33456    -0.08300   1.00
H2       0.78697    0.32562    -0.12895   1.00
H2       0.83514    0.35024    -0.19030   1.00
H2       0.67965    0.13293    0.05753   1.00
H2       0.67212    0.10614    0.01237   1.00
C2       0.74748    0.25091    0.10395   1.00
C3       0.76596    0.21995    0.08403   1.00
O2       0.77459    0.18565    0.10326   1.00
C3       0.73177    0.28198    0.08174   1.00
H1       0.71834    0.30660    0.09615   1.00
C3a      0.76744    0.22017    0.04287   1.00
H1       0.77970    0.19520    0.02798   1.00
C3b      0.73218    0.28151    0.04078   1.00
C4       0.75003    0.25042    0.02100   1.00
O3       0.68546    0.22018    -0.02167   1.00
C5       0.81462    0.18435    0.11280   1.00
H2       0.83321    0.18615    0.08609   1.00
C5       0.82189    0.14552    0.13326   1.00
H2       0.82264    0.20877    0.13274   1.00
H2       0.82416    0.12226    0.11068   1.00
H2       0.79546    0.13873    0.15093   1.00
C5       0.85857    0.14597    0.15918   1.00
H2       0.88410    0.15579    0.14176   1.00
C5       0.86709    0.10498    0.17547   1.00
H2       0.85472    0.16565    0.18493   1.00
C5       0.65372    0.16748    0.00983   1.00
H2       0.62995    0.16457    -0.01215   1.00
H2       0.64471    0.19092    0.03048   1.00
C5       0.65982    0.12888    0.03200   1.00
C5       0.62052    0.11389    0.04775   1.00
H2       0.90359    0.35783    -0.19286   1.00
H2       0.88453    0.40799    -0.18447   1.00
H2       0.90578    0.37977    -0.14323   1.00
H2       0.56827    0.37889    -0.03105   1.00
H2       0.60525    0.40938    -0.00551   1.00
H2       0.61748    0.38591    -0.05293   1.00
H2       0.87969    0.10763    0.20613   1.00
H2       0.83888    0.08741    0.17656   1.00
H2       0.88900    0.08956    0.15577   1.00
H2       0.59727    0.13732    0.04366   1.00
H2       0.61166    0.08646    0.03116   1.00
H2       0.62352    0.10678    0.08010   1.00
C5       1.01556    0.83779    1.29718   1.00
H2       1.02404    0.86507    1.31245   1.00
H2       1.03927    0.83181    1.27590   1.00
C5       1.01241    0.80428    1.32694   1.00
C5       1.05296    0.78732    1.33623   1.00
H2       0.99349    0.78066    1.31515   1.00
O3       0.88210    0.85229    1.14500   1.00
C4       0.91497    0.91542    1.18600   1.00
C3c      0.94621    0.89980    1.20743   1.00
H1       0.97099    0.88753    1.19225   1.00
C3d      0.88321    0.93177    1.20635   1.00
C3       0.94581    0.89921    1.24854   1.00
O2       0.97935    0.88786    1.26748   1.00
C3       0.88239    0.93055    1.24727   1.00
H1       0.85679    0.94219    1.26157   1.00
C2       0.91354    0.91448    1.26939   1.00
C5       0.84094    0.85384    1.14379   1.00
H2       0.82948    0.85249    1.11338   1.00
H2       0.82983    0.88113    1.15766   1.00
C5       0.82547    0.81872    1.16629   1.00
H2       0.83780    0.81947    1.19637   1.00
H2       0.83644    0.79165    1.15198   1.00
C5       0.78056    0.81891    1.16762   1.00
H2       0.76805    0.81844    1.13768   1.00
H2       0.76961    0.84526    1.18311   1.00
C5       0.76567    0.78257    1.18945   1.00
C5       0.85569    0.98425    1.17605   1.00
C5       0.97781    0.84745    1.27570   1.00
H2       0.88087    0.98776    1.15588   1.00
H2       0.86049    1.00316    1.20212   1.00
H2       0.97591    0.83044    1.24800   1.00
H2       0.95197    0.83938    1.29395   1.00
H2       1.00014    0.81476    1.35530   1.00
H2       0.84465    1.03207    1.10747   1.00
H2       0.83712    1.05886    1.15263   1.00
C2       0.91248    0.91409    1.06105   1.00
C3       0.93096    0.94505    1.08097   1.00
O2       0.93959    0.97935    1.06174   1.00
C3       0.89677    0.88302    1.08326   1.00
H1       0.88334    0.85840    1.06885   1.00
C3a      0.93244    0.94483    1.12213   1.00
H1       0.94470    0.96980    1.13702   1.00
C3b      0.89718    0.88349    1.12422   1.00
C4       0.91503    0.91458    1.14400   1.00
O3       0.85046    0.94482    1.18667   1.00
C5       0.97962    0.98065    1.05220   1.00
H2       0.99821    0.97885    1.07891   1.00
C5       0.98689    1.01948    1.03174   1.00
H2       0.98764    0.95623    1.03226   1.00
H2       0.98916    1.04274    1.05432   1.00
H2       0.96046    1.02627    1.01407   1.00
C5       1.02357    1.01903    1.00582   1.00
H2       1.04910    1.00921    1.02324   1.00
C5       1.03209    1.06002    0.98953   1.00
H2       1.01972    0.99935    0.98007   1.00
C5       0.81872    0.99752    1.15517   1.00
H2       0.79495    1.00043    1.17715   1.00
H2       0.80971    0.97408    1.13452   1.00
C5       0.82482    1.03612    1.13300   1.00
C5       0.78552    1.05111    1.11725   1.00
H2       1.06859    0.80717    1.35786   1.00
H2       1.04953    0.75701    1.34947   1.00
H2       1.07078    0.78523    1.30823   1.00
H2       0.73327    0.78611    1.19605   1.00
H2       0.77025    0.75562    1.17051   1.00
H2       0.78248    0.77909    1.21793   1.00
H2       1.04469    1.05737    0.95887   1.00
H2       1.00388    1.07759    0.98844   1.00
H2       1.05400    1.07544    1.00923   1.00
H2       0.76227    1.02768    1.12134   1.00
H2       0.77666    1.07854    1.13384   1.00
H2       0.78852    1.05822    1.08490   1.00
C5       0.83779    1.29718    1.01556   1.00
H2       0.86507    1.31245    1.02404   1.00
H2       0.83181    1.27590    1.03927   1.00
C5       0.80428    1.32694    1.01241   1.00
C5       0.78732    1.33623    1.05296   1.00
H2       0.78066    1.31515    0.99349   1.00
O3       0.85229    1.14500    0.88210   1.00
C4       0.91542    1.18600    0.91497   1.00
C3c      0.89980    1.20743    0.94621   1.00
H1       0.88753    1.19225    0.97099   1.00
C3d      0.93177    1.20635    0.88321   1.00
C3       0.89921    1.24854    0.94581   1.00
O2       0.88786    1.26748    0.97935   1.00
C3       0.93055    1.24727    0.88239   1.00
H1       0.94219    1.26157    0.85679   1.00
C2       0.91448    1.26939    0.91354   1.00
C5       0.85384    1.14379    0.84094   1.00
H2       0.85249    1.11338    0.82948   1.00
H2       0.88113    1.15766    0.82983   1.00
C5       0.81872    1.16629    0.82547   1.00
H2       0.81947    1.19637    0.83780   1.00
H2       0.79165    1.15198    0.83644   1.00
C5       0.81891    1.16762    0.78056   1.00
H2       0.81844    1.13768    0.76805   1.00
H2       0.84526    1.18311    0.76961   1.00
C5       0.78257    1.18945    0.76567   1.00
C5       0.98425    1.17605    0.85569   1.00
C5       0.84745    1.27570    0.97781   1.00
H2       0.98776    1.15588    0.88087   1.00
H2       1.00316    1.20212    0.86049   1.00
H2       0.83044    1.24800    0.97591   1.00
H2       0.83938    1.29395    0.95197   1.00
H2       0.81476    1.35530    1.00014   1.00
H2       1.03207    1.10747    0.84465   1.00
H2       1.05886    1.15263    0.83712   1.00
C2       0.91409    1.06105    0.91248   1.00
C3       0.94505    1.08097    0.93096   1.00
O2       0.97935    1.06174    0.93959   1.00
C3       0.88302    1.08326    0.89677   1.00
H1       0.85840    1.06885    0.88334   1.00
C3a      0.94483    1.12213    0.93244   1.00
H1       0.96980    1.13702    0.94470   1.00
C3b      0.88349    1.12422    0.89718   1.00
C4       0.91458    1.14400    0.91503   1.00
O3       0.94482    1.18667    0.85046   1.00
C5       0.98065    1.05220    0.97962   1.00
H2       0.97885    1.07891    0.99821   1.00
C5       1.01948    1.03174    0.98689   1.00
H2       0.95623    1.03226    0.98764   1.00
H2       1.04274    1.05432    0.98916   1.00
H2       1.02627    1.01407    0.96046   1.00
C5       1.01903    1.00582    1.02357   1.00
H2       1.00921    1.02324    1.04910   1.00
C5       1.06002    0.98953    1.03209   1.00
H2       0.99935    0.98007    1.01972   1.00
C5       0.99752    1.15517    0.81872   1.00
H2       1.00043    1.17715    0.79495   1.00
H2       0.97408    1.13452    0.80971   1.00
C5       1.03612    1.13300    0.82482   1.00
C5       1.05111    1.11725    0.78552   1.00
H2       0.80717    1.35786    1.06859   1.00
H2       0.75701    1.34947    1.04953   1.00
H2       0.78523    1.30823    1.07078   1.00
H2       0.78611    1.19605    0.73327   1.00
H2       0.75562    1.17051    0.77025   1.00
H2       0.77909    1.21793    0.78248   1.00
H2       1.05737    0.95887    1.04469   1.00
H2       1.07759    0.98844    1.00388   1.00
H2       1.07544    1.00923    1.05400   1.00
H2       1.02768    1.12134    0.76227   1.00
H2       1.07854    1.13384    0.77666   1.00
H2       1.05822    1.08490    0.78852   1.00
C5       0.53282    1.01556    0.99221   1.00
H2       0.51755    1.02404    0.96493   1.00
H2       0.55410    1.03927    0.99819   1.00
C5       0.50306    1.01241    1.02572   1.00
C5       0.49377    1.05296    1.04268   1.00
H2       0.51485    0.99349    1.04934   1.00
O3       0.68500    0.88210    0.97771   1.00
C4       0.64400    0.91497    0.91458   1.00
C3c      0.62257    0.94621    0.93020   1.00
H1       0.63775    0.97099    0.94247   1.00
C3d      0.62365    0.88321    0.89823   1.00
C3       0.58146    0.94581    0.93079   1.00
O2       0.56252    0.97935    0.94214   1.00
C3       0.58273    0.88239    0.89945   1.00
H1       0.56843    0.85679    0.88781   1.00
C2       0.56061    0.91354    0.91552   1.00
C5       0.68621    0.84094    0.97616   1.00
H2       0.71662    0.82948    0.97751   1.00
H2       0.67234    0.82983    0.94887   1.00
C5       0.66371    0.82547    1.01128   1.00
H2       0.63363    0.83780    1.01053   1.00
H2       0.67802    0.83644    1.03835   1.00
C5       0.66238    0.78056    1.01109   1.00
H2       0.69232    0.76805    1.01156   1.00
H2       0.64689    0.76961    0.98474   1.00
C5       0.64055    0.76567    1.04743   1.00
C5       0.65395    0.85569    0.84575   1.00
C5       0.55430    0.97781    0.98255   1.00
H2       0.67412    0.88087    0.84224   1.00
H2       0.62788    0.86049    0.82684   1.00
H2       0.58200    0.97591    0.99956   1.00
H2       0.53605    0.95197    0.99062   1.00
H2       0.47470    1.00014    1.01524   1.00
H2       0.72253    0.84465    0.79793   1.00
H2       0.67737    0.83712    0.77114   1.00
C2       0.76895    0.91248    0.91591   1.00
C3       0.74903    0.93096    0.88495   1.00
O2       0.76826    0.93959    0.85065   1.00
C3       0.74674    0.89677    0.94698   1.00
H1       0.76115    0.88334    0.97160   1.00
C3a      0.70787    0.93244    0.88517   1.00
H1       0.69298    0.94470    0.86020   1.00
C3b      0.70578    0.89718    0.94651   1.00
C4       0.68600    0.91503    0.91542   1.00
O3       0.64333    0.85046    0.88518   1.00
C5       0.77780    0.97962    0.84935   1.00
H2       0.75109    0.99821    0.85115   1.00
C5       0.79826    0.98689    0.81052   1.00
H2       0.79774    0.98764    0.87377   1.00
H2       0.77568    0.98916    0.78726   1.00
H2       0.81593    0.96046    0.80373   1.00
C5       0.82418    1.02357    0.81097   1.00
H2       0.80676    1.04910    0.82079   1.00
C5       0.84047    1.03209    0.76998   1.00
H2       0.84993    1.01972    0.83065   1.00
C5       0.67483    0.81872    0.83248   1.00
H2       0.65285    0.79495    0.82957   1.00
H2       0.69548    0.80971    0.85592   1.00
C5       0.69700    0.82482    0.79388   1.00
C5       0.71275    0.78552    0.77889   1.00
H2       0.47214    1.06859    1.02283   1.00
H2       0.48053    1.04953    1.07299   1.00
H2       0.52177    1.07078    1.04477   1.00
H2       0.63395    0.73327    1.04389   1.00
H2       0.65949    0.77025    1.07438   1.00
H2       0.61207    0.78248    1.05091   1.00
H2       0.87113    1.04469    0.77263   1.00
H2       0.84156    1.00388    0.75241   1.00
H2       0.82077    1.05400    0.75456   1.00
H2       0.70866    0.76227    0.80232   1.00
H2       0.69616    0.77666    0.75146   1.00
H2       0.74510    0.78852    0.77178   1.00
C5       1.29718    1.01556    0.83779   1.00
H2       1.31245    1.02404    0.86507   1.00
H2       1.27590    1.03927    0.83181   1.00
C5       1.32694    1.01241    0.80428   1.00
C5       1.33623    1.05296    0.78732   1.00
H2       1.31515    0.99349    0.78066   1.00
O3       1.14500    0.88210    0.85229   1.00
C4       1.18600    0.91497    0.91542   1.00
C3c      1.20743    0.94621    0.89980   1.00
H1       1.19225    0.97099    0.88753   1.00
C3d      1.20635    0.88321    0.93177   1.00
C3       1.24854    0.94581    0.89921   1.00
O2       1.26748    0.97935    0.88786   1.00
C3       1.24727    0.88239    0.93055   1.00
H1       1.26157    0.85679    0.94219   1.00
C2       1.26939    0.91354    0.91448   1.00
C5       1.14379    0.84094    0.85384   1.00
H2       1.11338    0.82948    0.85249   1.00
H2       1.15766    0.82983    0.88113   1.00
C5       1.16629    0.82547    0.81872   1.00
H2       1.19637    0.83780    0.81947   1.00
H2       1.15198    0.83644    0.79165   1.00
C5       1.16762    0.78056    0.81891   1.00
H2       1.13768    0.76805    0.81844   1.00
H2       1.18311    0.76961    0.84526   1.00
C5       1.18945    0.76567    0.78257   1.00
C5       1.17605    0.85569    0.98425   1.00
C5       1.27570    0.97781    0.84745   1.00
H2       1.15588    0.88087    0.98776   1.00
H2       1.20212    0.86049    1.00316   1.00
H2       1.24800    0.97591    0.83044   1.00
H2       1.29395    0.95197    0.83938   1.00
H2       1.35530    1.00014    0.81476   1.00
H2       1.10747    0.84465    1.03207   1.00
H2       1.15263    0.83712    1.05886   1.00
C2       1.06105    0.91248    0.91409   1.00
C3       1.08097    0.93096    0.94505   1.00
O2       1.06174    0.93959    0.97935   1.00
C3       1.08326    0.89677    0.88302   1.00
H1       1.06885    0.88334    0.85840   1.00
C3a      1.12213    0.93244    0.94483   1.00
H1       1.13702    0.94470    0.96980   1.00
C3b      1.12422    0.89718    0.88349   1.00
C4       1.14400    0.91503    0.91458   1.00
O3       1.18667    0.85046    0.94482   1.00
C5       1.05220    0.97962    0.98065   1.00
H2       1.07891    0.99821    0.97885   1.00
C5       1.03174    0.98689    1.01948   1.00
H2       1.03226    0.98764    0.95623   1.00
H2       1.05432    0.98916    1.04274   1.00
H2       1.01407    0.96046    1.02627   1.00
C5       1.00582    1.02357    1.01903   1.00
H2       1.02324    1.04910    1.00921   1.00
C5       0.98953    1.03209    1.06002   1.00
H2       0.98007    1.01972    0.99935   1.00
C5       1.15517    0.81872    0.99752   1.00
H2       1.17715    0.79495    1.00043   1.00
H2       1.13452    0.80971    0.97408   1.00
C5       1.13300    0.82482    1.03612   1.00
C5       1.11725    0.78552    1.05111   1.00
H2       1.35786    1.06859    0.80717   1.00
H2       1.34947    1.04953    0.75701   1.00
H2       1.30823    1.07078    0.78523   1.00
H2       1.19605    0.73327    0.78611   1.00
H2       1.17051    0.77025    0.75562   1.00
H2       1.21793    0.78248    0.77909   1.00
H2       0.95887    1.04469    1.05737   1.00
H2       0.98844    1.00388    1.07759   1.00
H2       1.00923    1.05400    1.07544   1.00
H2       1.12134    0.76227    1.02768   1.00
H2       1.13384    0.77666    1.07854   1.00
H2       1.08490    0.78852    1.05822   1.00
C5       0.99221    0.53282    1.01556   1.00
H2       0.96493    0.51755    1.02404   1.00
H2       0.99819    0.55410    1.03927   1.00
C5       1.02572    0.50306    1.01241   1.00
C5       1.04268    0.49377    1.05296   1.00
H2       1.04934    0.51485    0.99349   1.00
O3       0.97771    0.68500    0.88210   1.00
C4       0.91458    0.64400    0.91497   1.00
C3c      0.93020    0.62257    0.94621   1.00
H1       0.94247    0.63775    0.97099   1.00
C3d      0.89823    0.62365    0.88321   1.00
C3       0.93079    0.58146    0.94581   1.00
O2       0.94214    0.56252    0.97935   1.00
C3       0.89945    0.58273    0.88239   1.00
H1       0.88781    0.56843    0.85679   1.00
C2       0.91552    0.56061    0.91354   1.00
C5       0.97616    0.68621    0.84094   1.00
H2       0.97751    0.71662    0.82948   1.00
H2       0.94887    0.67234    0.82983   1.00
C5       1.01128    0.66371    0.82547   1.00
H2       1.01053    0.63363    0.83780   1.00
H2       1.03835    0.67802    0.83644   1.00
C5       1.01109    0.66238    0.78056   1.00
H2       1.01156    0.69232    0.76805   1.00
H2       0.98474    0.64689    0.76961   1.00
C5       1.04743    0.64055    0.76567   1.00
C5       0.84575    0.65395    0.85569   1.00
C5       0.98255    0.55430    0.97781   1.00
H2       0.84224    0.67412    0.88087   1.00
H2       0.82684    0.62788    0.86049   1.00
H2       0.99956    0.58200    0.97591   1.00
H2       0.99062    0.53605    0.95197   1.00
H2       1.01524    0.47470    1.00014   1.00
H2       0.79793    0.72253    0.84465   1.00
H2       0.77114    0.67737    0.83712   1.00
C2       0.91591    0.76895    0.91248   1.00
C3       0.88495    0.74903    0.93096   1.00
O2       0.85065    0.76826    0.93959   1.00
C3       0.94698    0.74674    0.89677   1.00
H1       0.97160    0.76115    0.88334   1.00
C3a      0.88517    0.70787    0.93244   1.00
H1       0.86020    0.69298    0.94470   1.00
C3b      0.94651    0.70578    0.89718   1.00
C4       0.91542    0.68600    0.91503   1.00
O3       0.88518    0.64333    0.85046   1.00
C5       0.84935    0.77780    0.97962   1.00
H2       0.85115    0.75109    0.99821   1.00
C5       0.81052    0.79826    0.98689   1.00
H2       0.87377    0.79774    0.98764   1.00
H2       0.78726    0.77568    0.98916   1.00
H2       0.80373    0.81593    0.96046   1.00
C5       0.81097    0.82418    1.02357   1.00
H2       0.82079    0.80676    1.04910   1.00
C5       0.76998    0.84047    1.03209   1.00
H2       0.83065    0.84993    1.01972   1.00
C5       0.83248    0.67483    0.81872   1.00
H2       0.82957    0.65285    0.79495   1.00
H2       0.85592    0.69548    0.80971   1.00
C5       0.79388    0.69700    0.82482   1.00
C5       0.77889    0.71275    0.78552   1.00
H2       1.02283    0.47214    1.06859   1.00
H2       1.07299    0.48053    1.04953   1.00
H2       1.04477    0.52177    1.07078   1.00
H2       1.04389    0.63395    0.73327   1.00
H2       1.07438    0.65949    0.77025   1.00
H2       1.05091    0.61207    0.78248   1.00
H2       0.77263    0.87113    1.04469   1.00
H2       0.75241    0.84156    1.00388   1.00
H2       0.75456    0.82077    1.05400   1.00
H2       0.80232    0.70866    0.76227   1.00
H2       0.75146    0.69616    0.77666   1.00
H2       0.77178    0.74510    0.78852   1.00
C5       1.01556    0.99221    0.53282   1.00
H2       1.02404    0.96493    0.51755   1.00
H2       1.03927    0.99819    0.55410   1.00
C5       1.01241    1.02572    0.50306   1.00
C5       1.05296    1.04268    0.49377   1.00
H2       0.99349    1.04934    0.51485   1.00
O3       0.88210    0.97771    0.68500   1.00
C4       0.91497    0.91458    0.64400   1.00
C3c      0.94621    0.93020    0.62257   1.00
H1       0.97099    0.94247    0.63775   1.00
C3d      0.88321    0.89823    0.62365   1.00
C3       0.94581    0.93079    0.58146   1.00
O2       0.97935    0.94214    0.56252   1.00
C3       0.88239    0.89945    0.58273   1.00
H1       0.85679    0.88781    0.56843   1.00
C2       0.91354    0.91552    0.56061   1.00
C5       0.84094    0.97616    0.68621   1.00
H2       0.82948    0.97751    0.71662   1.00
H2       0.82983    0.94887    0.67234   1.00
C5       0.82547    1.01128    0.66371   1.00
H2       0.83780    1.01053    0.63363   1.00
H2       0.83644    1.03835    0.67802   1.00
C5       0.78056    1.01109    0.66238   1.00
H2       0.76805    1.01156    0.69232   1.00
H2       0.76961    0.98474    0.64689   1.00
C5       0.76567    1.04743    0.64055   1.00
C5       0.85569    0.84575    0.65395   1.00
C5       0.97781    0.98255    0.55430   1.00
H2       0.88087    0.84224    0.67412   1.00
H2       0.86049    0.82684    0.62788   1.00
H2       0.97591    0.99956    0.58200   1.00
H2       0.95197    0.99062    0.53605   1.00
H2       1.00014    1.01524    0.47470   1.00
H2       0.84465    0.79793    0.72253   1.00
H2       0.83712    0.77114    0.67737   1.00
C2       0.91248    0.91591    0.76895   1.00
C3       0.93096    0.88495    0.74903   1.00
O2       0.93959    0.85065    0.76826   1.00
C3       0.89677    0.94698    0.74674   1.00
H1       0.88334    0.97160    0.76115   1.00
C3a      0.93244    0.88517    0.70787   1.00
H1       0.94470    0.86020    0.69298   1.00
C3b      0.89718    0.94651    0.70578   1.00
C4       0.91503    0.91542    0.68600   1.00
O3       0.85046    0.88518    0.64333   1.00
C5       0.97962    0.84935    0.77780   1.00
H2       0.99821    0.85115    0.75109   1.00
C5       0.98689    0.81052    0.79826   1.00
H2       0.98764    0.87377    0.79774   1.00
H2       0.98916    0.78726    0.77568   1.00
H2       0.96046    0.80373    0.81593   1.00
C5       1.02357    0.81097    0.82418   1.00
H2       1.04910    0.82079    0.80676   1.00
C5       1.03209    0.76998    0.84047   1.00
H2       1.01972    0.83065    0.84993   1.00
C5       0.81872    0.83248    0.67483   1.00
H2       0.79495    0.82957    0.65285   1.00
H2       0.80971    0.85592    0.69548   1.00
C5       0.82482    0.79388    0.69700   1.00
C5       0.78552    0.77889    0.71275   1.00
H2       1.06859    1.02283    0.47214   1.00
H2       1.04953    1.07299    0.48053   1.00
H2       1.07078    1.04477    0.52177   1.00
H2       0.73327    1.04389    0.63395   1.00
H2       0.77025    1.07438    0.65949   1.00
H2       0.78248    1.05091    0.61207   1.00
H2       1.04469    0.77263    0.87113   1.00
H2       1.00388    0.75241    0.84156   1.00
H2       1.05400    0.75456    0.82077   1.00
H2       0.76227    0.80232    0.70866   1.00
H2       0.77666    0.75146    0.69616   1.00
H2       0.78852    0.77178    0.74510   1.00
C5       0.51556    0.33779    1.29718   1.00
H2       0.52404    0.36507    1.31245   1.00
H2       0.53927    0.33181    1.27590   1.00
C5       0.51241    0.30428    1.32694   1.00
C5       0.55296    0.28732    1.33623   1.00
H2       0.49349    0.28066    1.31515   1.00
O3       0.38210    0.35229    1.14500   1.00
C4       0.41497    0.41542    1.18600   1.00
C3c      0.44621    0.39980    1.20743   1.00
H1       0.47099    0.38753    1.19225   1.00
C3d      0.38321    0.43177    1.20635   1.00
C3       0.44581    0.39921    1.24854   1.00
O2       0.47935    0.38786    1.26748   1.00
C3       0.38239    0.43055    1.24727   1.00
H1       0.35679    0.44219    1.26157   1.00
C2       0.41354    0.41448    1.26939   1.00
C5       0.34094    0.35384    1.14379   1.00
H2       0.32948    0.35249    1.11338   1.00
H2       0.32983    0.38113    1.15766   1.00
C5       0.32547    0.31872    1.16629   1.00
H2       0.33780    0.31947    1.19637   1.00
H2       0.33644    0.29165    1.15198   1.00
C5       0.28056    0.31891    1.16762   1.00
H2       0.26805    0.31844    1.13768   1.00
H2       0.26961    0.34526    1.18311   1.00
C5       0.26567    0.28257    1.18945   1.00
C5       0.35569    0.48425    1.17605   1.00
C5       0.47781    0.34745    1.27570   1.00
H2       0.38087    0.48776    1.15588   1.00
H2       0.36049    0.50316    1.20212   1.00
H2       0.47591    0.33044    1.24800   1.00
H2       0.45197    0.33938    1.29395   1.00
H2       0.50014    0.31476    1.35530   1.00
H2       0.34465    0.53207    1.10747   1.00
H2       0.33712    0.55886    1.15263   1.00
C2       0.41248    0.41409    1.06105   1.00
C3       0.43096    0.44505    1.08097   1.00
O2       0.43959    0.47935    1.06174   1.00
C3       0.39677    0.38302    1.08326   1.00
H1       0.38334    0.35840    1.06885   1.00
C3a      0.43244    0.44483    1.12213   1.00
H1       0.44470    0.46980    1.13702   1.00
C3b      0.39718    0.38349    1.12422   1.00
C4       0.41503    0.41458    1.14400   1.00
O3       0.35046    0.44482    1.18667   1.00
C5       0.47962    0.48065    1.05220   1.00
H2       0.49821    0.47885    1.07891   1.00
C5       0.48689    0.51948    1.03174   1.00
H2       0.48764    0.45623    1.03226   1.00
H2       0.48916    0.54274    1.05432   1.00
H2       0.46046    0.52627    1.01407   1.00
C5       0.52357    0.51903    1.00582   1.00
H2       0.54910    0.50921    1.02324   1.00
C5       0.53209    0.56002    0.98953   1.00
H2       0.51972    0.49935    0.98007   1.00
C5       0.31872    0.49752    1.15517   1.00
H2       0.29495    0.50043    1.17715   1.00
H2       0.30971    0.47408    1.13452   1.00
C5       0.32482    0.53612    1.13300   1.00
C5       0.28552    0.55111    1.11725   1.00
H2       0.56859    0.30717    1.35786   1.00
H2       0.54953    0.25701    1.34947   1.00
H2       0.57078    0.28523    1.30823   1.00
H2       0.23327    0.28611    1.19605   1.00
H2       0.27025    0.25562    1.17051   1.00
H2       0.28248    0.27909    1.21793   1.00
H2       0.54469    0.55737    0.95887   1.00
H2       0.50388    0.57759    0.98844   1.00
H2       0.55400    0.57544    1.00923   1.00
H2       0.26227    0.52768    1.12134   1.00
H2       0.27666    0.57854    1.13384   1.00
H2       0.28852    0.55822    1.08490   1.00
C5       0.33779    0.79718    1.01556   1.00
H2       0.36507    0.81245    1.02404   1.00
H2       0.33181    0.77590    1.03927   1.00
C5       0.30428    0.82694    1.01241   1.00
C5       0.28732    0.83623    1.05296   1.00
H2       0.28066    0.81515    0.99349   1.00
O3       0.35229    0.64500    0.88210   1.00
C4       0.41542    0.68600    0.91497   1.00
C3c      0.39980    0.70743    0.94621   1.00
H1       0.38753    0.69225    0.97099   1.00
C3d      0.43177    0.70635    0.88321   1.00
C3       0.39921    0.74854    0.94581   1.00
O2       0.38786    0.76748    0.97935   1.00
C3       0.43055    0.74727    0.88239   1.00
H1       0.44219    0.76157    0.85679   1.00
C2       0.41448    0.76939    0.91354   1.00
C5       0.35384    0.64379    0.84094   1.00
H2       0.35249    0.61338    0.82948   1.00
H2       0.38113    0.65766    0.82983   1.00
C5       0.31872    0.66629    0.82547   1.00
H2       0.31947    0.69637    0.83780   1.00
H2       0.29165    0.65198    0.83644   1.00
C5       0.31891    0.66762    0.78056   1.00
H2       0.31844    0.63768    0.76805   1.00
H2       0.34526    0.68311    0.76961   1.00
C5       0.28257    0.68945    0.76567   1.00
C5       0.48425    0.67605    0.85569   1.00
C5       0.34745    0.77570    0.97781   1.00
H2       0.48776    0.65588    0.88087   1.00
H2       0.50316    0.70212    0.86049   1.00
H2       0.33044    0.74800    0.97591   1.00
H2       0.33938    0.79395    0.95197   1.00
H2       0.31476    0.85530    1.00014   1.00
H2       0.53207    0.60747    0.84465   1.00
H2       0.55886    0.65263    0.83712   1.00
C2       0.41409    0.56105    0.91248   1.00
C3       0.44505    0.58097    0.93096   1.00
O2       0.47935    0.56174    0.93959   1.00
C3       0.38302    0.58326    0.89677   1.00
H1       0.35840    0.56885    0.88334   1.00
C3a      0.44483    0.62213    0.93244   1.00
H1       0.46980    0.63702    0.94470   1.00
C3b      0.38349    0.62422    0.89718   1.00
C4       0.41458    0.64400    0.91503   1.00
O3       0.44482    0.68667    0.85046   1.00
C5       0.48065    0.55220    0.97962   1.00
H2       0.47885    0.57891    0.99821   1.00
C5       0.51948    0.53174    0.98689   1.00
H2       0.45623    0.53226    0.98764   1.00
H2       0.54274    0.55432    0.98916   1.00
H2       0.52627    0.51407    0.96046   1.00
C5       0.51903    0.50582    1.02357   1.00
H2       0.50921    0.52324    1.04910   1.00
C5       0.56002    0.48953    1.03209   1.00
H2       0.49935    0.48007    1.01972   1.00
C5       0.49752    0.65517    0.81872   1.00
H2       0.50043    0.67715    0.79495   1.00
H2       0.47408    0.63452    0.80971   1.00
C5       0.53612    0.63300    0.82482   1.00
C5       0.55111    0.61725    0.78552   1.00
H2       0.30717    0.85786    1.06859   1.00
H2       0.25701    0.84947    1.04953   1.00
H2       0.28523    0.80823    1.07078   1.00
H2       0.28611    0.69605    0.73327   1.00
H2       0.25562    0.67051    0.77025   1.00
H2       0.27909    0.71793    0.78248   1.00
H2       0.55737    0.45887    1.04469   1.00
H2       0.57759    0.48844    1.00388   1.00
H2       0.57544    0.50923    1.05400   1.00
H2       0.52768    0.62134    0.76227   1.00
H2       0.57854    0.63384    0.77666   1.00
H2       0.55822    0.58490    0.78852   1.00
C5       0.03282    0.51556    0.99221   1.00
H2       0.01755    0.52404    0.96493   1.00
H2       0.05410    0.53927    0.99819   1.00
C5       0.00306    0.51241    1.02572   1.00
C5       -0.00623   0.55296    1.04268   1.00
H2       0.01485    0.49349    1.04934   1.00
O3       0.18500    0.38210    0.97771   1.00
C4       0.14400    0.41497    0.91458   1.00
C3c      0.12257    0.44621    0.93020   1.00
H1       0.13775    0.47099    0.94247   1.00
C3d      0.12365    0.38321    0.89823   1.00
C3       0.08146    0.44581    0.93079   1.00
O2       0.06252    0.47935    0.94214   1.00
C3       0.08273    0.38239    0.89945   1.00
H1       0.06843    0.35679    0.88781   1.00
C2       0.06061    0.41354    0.91552   1.00
C5       0.18621    0.34094    0.97616   1.00
H2       0.21662    0.32948    0.97751   1.00
H2       0.17234    0.32983    0.94887   1.00
C5       0.16371    0.32547    1.01128   1.00
H2       0.13363    0.33780    1.01053   1.00
H2       0.17802    0.33644    1.03835   1.00
C5       0.16238    0.28056    1.01109   1.00
H2       0.19232    0.26805    1.01156   1.00
H2       0.14689    0.26961    0.98474   1.00
C5       0.14055    0.26567    1.04743   1.00
C5       0.15395    0.35569    0.84575   1.00
C5       0.05430    0.47781    0.98255   1.00
H2       0.17412    0.38087    0.84224   1.00
H2       0.12788    0.36049    0.82684   1.00
H2       0.08200    0.47591    0.99956   1.00
H2       0.03605    0.45197    0.99062   1.00
H2       -0.02530   0.50014    1.01524   1.00
H2       0.22253    0.34465    0.79793   1.00
H2       0.17737    0.33712    0.77114   1.00
C2       0.26895    0.41248    0.91591   1.00
C3       0.24903    0.43096    0.88495   1.00
O2       0.26826    0.43959    0.85065   1.00
C3       0.24674    0.39677    0.94698   1.00
H1       0.26115    0.38334    0.97160   1.00
C3a      0.20787    0.43244    0.88517   1.00
H1       0.19298    0.44470    0.86020   1.00
C3b      0.20578    0.39718    0.94651   1.00
C4       0.18600    0.41503    0.91542   1.00
O3       0.14333    0.35046    0.88518   1.00
C5       0.27780    0.47962    0.84935   1.00
H2       0.25109    0.49821    0.85115   1.00
C5       0.29826    0.48689    0.81052   1.00
H2       0.29774    0.48764    0.87377   1.00
H2       0.27568    0.48916    0.78726   1.00
H2       0.31593    0.46046    0.80373   1.00
C5       0.32418    0.52357    0.81097   1.00
H2       0.30676    0.54910    0.82079   1.00
C5       0.34047    0.53209    0.76998   1.00
H2       0.34993    0.51972    0.83065   1.00
C5       0.17483    0.31872    0.83248   1.00
H2       0.15285    0.29495    0.82957   1.00
H2       0.19548    0.30971    0.85592   1.00
C5       0.19700    0.32482    0.79388   1.00
C5       0.21275    0.28552    0.77889   1.00
H2       -0.02786   0.56859    1.02283   1.00
H2       -0.01947   0.54953    1.07299   1.00
H2       0.02177    0.57078    1.04477   1.00
H2       0.13395    0.23327    1.04389   1.00
H2       0.15949    0.27025    1.07438   1.00
H2       0.11207    0.28248    1.05091   1.00
H2       0.37113    0.54469    0.77263   1.00
H2       0.34156    0.50388    0.75241   1.00
H2       0.32077    0.55400    0.75456   1.00
H2       0.20866    0.26227    0.80232   1.00
H2       0.19616    0.27666    0.75146   1.00
H2       0.24510    0.28852    0.77178   1.00
C5       0.79718    0.51556    0.83779   1.00
H2       0.81245    0.52404    0.86507   1.00
H2       0.77590    0.53927    0.83181   1.00
C5       0.82694    0.51241    0.80428   1.00
C5       0.83623    0.55296    0.78732   1.00
H2       0.81515    0.49349    0.78066   1.00
O3       0.64500    0.38210    0.85229   1.00
C4       0.68600    0.41497    0.91542   1.00
C3c      0.70743    0.44621    0.89980   1.00
H1       0.69225    0.47099    0.88753   1.00
C3d      0.70635    0.38321    0.93177   1.00
C3       0.74854    0.44581    0.89921   1.00
O2       0.76748    0.47935    0.88786   1.00
C3       0.74727    0.38239    0.93055   1.00
H1       0.76157    0.35679    0.94219   1.00
C2       0.76939    0.41354    0.91448   1.00
C5       0.64379    0.34094    0.85384   1.00
H2       0.61338    0.32948    0.85249   1.00
H2       0.65766    0.32983    0.88113   1.00
C5       0.66629    0.32547    0.81872   1.00
H2       0.69637    0.33780    0.81947   1.00
H2       0.65198    0.33644    0.79165   1.00
C5       0.66762    0.28056    0.81891   1.00
H2       0.63768    0.26805    0.81844   1.00
H2       0.68311    0.26961    0.84526   1.00
C5       0.68945    0.26567    0.78257   1.00
C5       0.67605    0.35569    0.98425   1.00
C5       0.77570    0.47781    0.84745   1.00
H2       0.65588    0.38087    0.98776   1.00
H2       0.70212    0.36049    1.00316   1.00
H2       0.74800    0.47591    0.83044   1.00
H2       0.79395    0.45197    0.83938   1.00
H2       0.85530    0.50014    0.81476   1.00
H2       0.60747    0.34465    1.03207   1.00
H2       0.65263    0.33712    1.05886   1.00
C2       0.56105    0.41248    0.91409   1.00
C3       0.58097    0.43096    0.94505   1.00
O2       0.56174    0.43959    0.97935   1.00
C3       0.58326    0.39677    0.88302   1.00
H1       0.56885    0.38334    0.85840   1.00
C3a      0.62213    0.43244    0.94483   1.00
H1       0.63702    0.44470    0.96980   1.00
C3b      0.62422    0.39718    0.88349   1.00
C4       0.64400    0.41503    0.91458   1.00
O3       0.68667    0.35046    0.94482   1.00
C5       0.55220    0.47962    0.98065   1.00
H2       0.57891    0.49821    0.97885   1.00
C5       0.53174    0.48689    1.01948   1.00
H2       0.53226    0.48764    0.95623   1.00
H2       0.55432    0.48916    1.04274   1.00
H2       0.51407    0.46046    1.02627   1.00
C5       0.50582    0.52357    1.01903   1.00
H2       0.52324    0.54910    1.00921   1.00
C5       0.48953    0.53209    1.06002   1.00
H2       0.48007    0.51972    0.99935   1.00
C5       0.65517    0.31872    0.99752   1.00
H2       0.67715    0.29495    1.00043   1.00
H2       0.63452    0.30971    0.97408   1.00
C5       0.63300    0.32482    1.03612   1.00
C5       0.61725    0.28552    1.05111   1.00
H2       0.85786    0.56859    0.80717   1.00
H2       0.84947    0.54953    0.75701   1.00
H2       0.80823    0.57078    0.78523   1.00
H2       0.69605    0.23327    0.78611   1.00
H2       0.67051    0.27025    0.75562   1.00
H2       0.71793    0.28248    0.77909   1.00
H2       0.45887    0.54469    1.05737   1.00
H2       0.48844    0.50388    1.07759   1.00
H2       0.50923    0.55400    1.07544   1.00
H2       0.62134    0.26227    1.02768   1.00
H2       0.63384    0.27666    1.07854   1.00
H2       0.58490    0.28852    1.05822   1.00
C5       0.49221    0.03282    1.01556   1.00
H2       0.46493    0.01755    1.02404   1.00
H2       0.49819    0.05410    1.03927   1.00
C5       0.52572    0.00306    1.01241   1.00
C5       0.54268    -0.00623   1.05296   1.00
H2       0.54934    0.01485    0.99349   1.00
O3       0.47771    0.18500    0.88210   1.00
C4       0.41458    0.14400    0.91497   1.00
C3c      0.43020    0.12257    0.94621   1.00
H1       0.44247    0.13775    0.97099   1.00
C3d      0.39823    0.12365    0.88321   1.00
C3       0.43079    0.08146    0.94581   1.00
O2       0.44214    0.06252    0.97935   1.00
C3       0.39945    0.08273    0.88239   1.00
H1       0.38781    0.06843    0.85679   1.00
C2       0.41552    0.06061    0.91354   1.00
C5       0.47616    0.18621    0.84094   1.00
H2       0.47751    0.21662    0.82948   1.00
H2       0.44887    0.17234    0.82983   1.00
C5       0.51128    0.16371    0.82547   1.00
H2       0.51053    0.13363    0.83780   1.00
H2       0.53835    0.17802    0.83644   1.00
C5       0.51109    0.16238    0.78056   1.00
H2       0.51156    0.19232    0.76805   1.00
H2       0.48474    0.14689    0.76961   1.00
C5       0.54743    0.14055    0.76567   1.00
C5       0.34575    0.15395    0.85569   1.00
C5       0.48255    0.05430    0.97781   1.00
H2       0.34224    0.17412    0.88087   1.00
H2       0.32684    0.12788    0.86049   1.00
H2       0.49956    0.08200    0.97591   1.00
H2       0.49062    0.03605    0.95197   1.00
H2       0.51524    -0.02530   1.00014   1.00
H2       0.29793    0.22253    0.84465   1.00
H2       0.27114    0.17737    0.83712   1.00
C2       0.41591    0.26895    0.91248   1.00
C3       0.38495    0.24903    0.93096   1.00
O2       0.35065    0.26826    0.93959   1.00
C3       0.44698    0.24674    0.89677   1.00
H1       0.47160    0.26115    0.88334   1.00
C3a      0.38517    0.20787    0.93244   1.00
H1       0.36020    0.19298    0.94470   1.00
C3b      0.44651    0.20578    0.89718   1.00
C4       0.41542    0.18600    0.91503   1.00
O3       0.38518    0.14333    0.85046   1.00
C5       0.34935    0.27780    0.97962   1.00
H2       0.35115    0.25109    0.99821   1.00
C5       0.31052    0.29826    0.98689   1.00
H2       0.37377    0.29774    0.98764   1.00
H2       0.28726    0.27568    0.98916   1.00
H2       0.30373    0.31593    0.96046   1.00
C5       0.31097    0.32418    1.02357   1.00
H2       0.32079    0.30676    1.04910   1.00
C5       0.26998    0.34047    1.03209   1.00
H2       0.33065    0.34993    1.01972   1.00
C5       0.33248    0.17483    0.81872   1.00
H2       0.32957    0.15285    0.79495   1.00
H2       0.35592    0.19548    0.80971   1.00
C5       0.29388    0.19700    0.82482   1.00
C5       0.27889    0.21275    0.78552   1.00
H2       0.52283    -0.02786   1.06859   1.00
H2       0.57299    -0.01947   1.04953   1.00
H2       0.54477    0.02177    1.07078   1.00
H2       0.54389    0.13395    0.73327   1.00
H2       0.57438    0.15949    0.77025   1.00
H2       0.55091    0.11207    0.78248   1.00
H2       0.27263    0.37113    1.04469   1.00
H2       0.25241    0.34156    1.00388   1.00
H2       0.25456    0.32077    1.05400   1.00
H2       0.30232    0.20866    0.76227   1.00
H2       0.25146    0.19616    0.77666   1.00
H2       0.27178    0.24510    0.78852   1.00
C5       0.51556    0.49221    0.53282   1.00
H2       0.52404    0.46493    0.51755   1.00
H2       0.53927    0.49819    0.55410   1.00
C5       0.51241    0.52572    0.50306   1.00
C5       0.55296    0.54268    0.49377   1.00
H2       0.49349    0.54934    0.51485   1.00
O3       0.38210    0.47771    0.68500   1.00
C4       0.41497    0.41458    0.64400   1.00
C3c      0.44621    0.43020    0.62257   1.00
H1       0.47099    0.44247    0.63775   1.00
C3d      0.38321    0.39823    0.62365   1.00
C3       0.44581    0.43079    0.58146   1.00
O2       0.47935    0.44214    0.56252   1.00
C3       0.38239    0.39945    0.58273   1.00
H1       0.35679    0.38781    0.56843   1.00
C2       0.41354    0.41552    0.56061   1.00
C5       0.34094    0.47616    0.68621   1.00
H2       0.32948    0.47751    0.71662   1.00
H2       0.32983    0.44887    0.67234   1.00
C5       0.32547    0.51128    0.66371   1.00
H2       0.33780    0.51053    0.63363   1.00
H2       0.33644    0.53835    0.67802   1.00
C5       0.28056    0.51109    0.66238   1.00
H2       0.26805    0.51156    0.69232   1.00
H2       0.26961    0.48474    0.64689   1.00
C5       0.26567    0.54743    0.64055   1.00
C5       0.35569    0.34575    0.65395   1.00
C5       0.47781    0.48255    0.55430   1.00
H2       0.38087    0.34224    0.67412   1.00
H2       0.36049    0.32684    0.62788   1.00
H2       0.47591    0.49956    0.58200   1.00
H2       0.45197    0.49062    0.53605   1.00
H2       0.50014    0.51524    0.47470   1.00
H2       0.34465    0.29793    0.72253   1.00
H2       0.33712    0.27114    0.67737   1.00
C2       0.41248    0.41591    0.76895   1.00
C3       0.43096    0.38495    0.74903   1.00
O2       0.43959    0.35065    0.76826   1.00
C3       0.39677    0.44698    0.74674   1.00
H1       0.38334    0.47160    0.76115   1.00
C3a      0.43244    0.38517    0.70787   1.00
H1       0.44470    0.36020    0.69298   1.00
C3b      0.39718    0.44651    0.70578   1.00
C4       0.41503    0.41542    0.68600   1.00
O3       0.35046    0.38518    0.64333   1.00
C5       0.47962    0.34935    0.77780   1.00
H2       0.49821    0.35115    0.75109   1.00
C5       0.48689    0.31052    0.79826   1.00
H2       0.48764    0.37377    0.79774   1.00
H2       0.48916    0.28726    0.77568   1.00
H2       0.46046    0.30373    0.81593   1.00
C5       0.52357    0.31097    0.82418   1.00
H2       0.54910    0.32079    0.80676   1.00
C5       0.53209    0.26998    0.84047   1.00
H2       0.51972    0.33065    0.84993   1.00
C5       0.31872    0.33248    0.67483   1.00
H2       0.29495    0.32957    0.65285   1.00
H2       0.30971    0.35592    0.69548   1.00
C5       0.32482    0.29388    0.69700   1.00
C5       0.28552    0.27889    0.71275   1.00
H2       0.56859    0.52283    0.47214   1.00
H2       0.54953    0.57299    0.48053   1.00
H2       0.57078    0.54477    0.52177   1.00
H2       0.23327    0.54389    0.63395   1.00
H2       0.27025    0.57438    0.65949   1.00
H2       0.28248    0.55091    0.61207   1.00
H2       0.54469    0.27263    0.87113   1.00
H2       0.50388    0.25241    0.84156   1.00
H2       0.55400    0.25456    0.82077   1.00
H2       0.26227    0.30232    0.70866   1.00
H2       0.27666    0.25146    0.69616   1.00
H2       0.28852    0.27178    0.74510   1.00
C5       0.51556    0.83779    0.79718   1.00
H2       0.52404    0.86507    0.81245   1.00
H2       0.53927    0.83181    0.77590   1.00
C5       0.51241    0.80428    0.82694   1.00
C5       0.55296    0.78732    0.83623   1.00
H2       0.49349    0.78066    0.81515   1.00
O3       0.38210    0.85229    0.64500   1.00
C4       0.41497    0.91542    0.68600   1.00
C3c      0.44621    0.89980    0.70743   1.00
H1       0.47099    0.88753    0.69225   1.00
C3d      0.38321    0.93177    0.70635   1.00
C3       0.44581    0.89921    0.74854   1.00
O2       0.47935    0.88786    0.76748   1.00
C3       0.38239    0.93055    0.74727   1.00
H1       0.35679    0.94219    0.76157   1.00
C2       0.41354    0.91448    0.76939   1.00
C5       0.34094    0.85384    0.64379   1.00
H2       0.32948    0.85249    0.61338   1.00
H2       0.32983    0.88113    0.65766   1.00
C5       0.32547    0.81872    0.66629   1.00
H2       0.33780    0.81947    0.69637   1.00
H2       0.33644    0.79165    0.65198   1.00
C5       0.28056    0.81891    0.66762   1.00
H2       0.26805    0.81844    0.63768   1.00
H2       0.26961    0.84526    0.68311   1.00
C5       0.26567    0.78257    0.68945   1.00
C5       0.35569    0.98425    0.67605   1.00
C5       0.47781    0.84745    0.77570   1.00
H2       0.38087    0.98776    0.65588   1.00
H2       0.36049    1.00316    0.70212   1.00
H2       0.47591    0.83044    0.74800   1.00
H2       0.45197    0.83938    0.79395   1.00
H2       0.50014    0.81476    0.85530   1.00
H2       0.34465    1.03207    0.60747   1.00
H2       0.33712    1.05886    0.65263   1.00
C2       0.41248    0.91409    0.56105   1.00
C3       0.43096    0.94505    0.58097   1.00
O2       0.43959    0.97935    0.56174   1.00
C3       0.39677    0.88302    0.58326   1.00
H1       0.38334    0.85840    0.56885   1.00
C3a      0.43244    0.94483    0.62213   1.00
H1       0.44470    0.96980    0.63702   1.00
C3b      0.39718    0.88349    0.62422   1.00
C4       0.41503    0.91458    0.64400   1.00
O3       0.35046    0.94482    0.68667   1.00
C5       0.47962    0.98065    0.55220   1.00
H2       0.49821    0.97885    0.57891   1.00
C5       0.48689    1.01948    0.53174   1.00
H2       0.48764    0.95623    0.53226   1.00
H2       0.48916    1.04274    0.55432   1.00
H2       0.46046    1.02627    0.51407   1.00
C5       0.52357    1.01903    0.50582   1.00
H2       0.54910    1.00921    0.52324   1.00
C5       0.53209    1.06002    0.48953   1.00
H2       0.51972    0.99935    0.48007   1.00
C5       0.31872    0.99752    0.65517   1.00
H2       0.29495    1.00043    0.67715   1.00
H2       0.30971    0.97408    0.63452   1.00
C5       0.32482    1.03612    0.63300   1.00
C5       0.28552    1.05111    0.61725   1.00
H2       0.56859    0.80717    0.85786   1.00
H2       0.54953    0.75701    0.84947   1.00
H2       0.57078    0.78523    0.80823   1.00
H2       0.23327    0.78611    0.69605   1.00
H2       0.27025    0.75562    0.67051   1.00
H2       0.28248    0.77909    0.71793   1.00
H2       0.54469    1.05737    0.45887   1.00
H2       0.50388    1.07759    0.48844   1.00
H2       0.55400    1.07544    0.50923   1.00
H2       0.26227    1.02768    0.62134   1.00
H2       0.27666    1.07854    0.63384   1.00
H2       0.28852    1.05822    0.58490   1.00
C5       0.33779    1.29718    0.51556   1.00
H2       0.36507    1.31245    0.52404   1.00
H2       0.33181    1.27590    0.53927   1.00
C5       0.30428    1.32694    0.51241   1.00
C5       0.28732    1.33623    0.55296   1.00
H2       0.28066    1.31515    0.49349   1.00
O3       0.35229    1.14500    0.38210   1.00
C4       0.41542    1.18600    0.41497   1.00
C3c      0.39980    1.20743    0.44621   1.00
H1       0.38753    1.19225    0.47099   1.00
C3d      0.43177    1.20635    0.38321   1.00
C3       0.39921    1.24854    0.44581   1.00
O2       0.38786    1.26748    0.47935   1.00
C3       0.43055    1.24727    0.38239   1.00
H1       0.44219    1.26157    0.35679   1.00
C2       0.41448    1.26939    0.41354   1.00
C5       0.35384    1.14379    0.34094   1.00
H2       0.35249    1.11338    0.32948   1.00
H2       0.38113    1.15766    0.32983   1.00
C5       0.31872    1.16629    0.32547   1.00
H2       0.31947    1.19637    0.33780   1.00
H2       0.29165    1.15198    0.33644   1.00
C5       0.31891    1.16762    0.28056   1.00
H2       0.31844    1.13768    0.26805   1.00
H2       0.34526    1.18311    0.26961   1.00
C5       0.28257    1.18945    0.26567   1.00
C5       0.48425    1.17605    0.35569   1.00
C5       0.34745    1.27570    0.47781   1.00
H2       0.48776    1.15588    0.38087   1.00
H2       0.50316    1.20212    0.36049   1.00
H2       0.33044    1.24800    0.47591   1.00
H2       0.33938    1.29395    0.45197   1.00
H2       0.31476    1.35530    0.50014   1.00
H2       0.53207    1.10747    0.34465   1.00
H2       0.55886    1.15263    0.33712   1.00
C2       0.41409    1.06105    0.41248   1.00
C3       0.44505    1.08097    0.43096   1.00
O2       0.47935    1.06174    0.43959   1.00
C3       0.38302    1.08326    0.39677   1.00
H1       0.35840    1.06885    0.38334   1.00
C3a      0.44483    1.12213    0.43244   1.00
H1       0.46980    1.13702    0.44470   1.00
C3b      0.38349    1.12422    0.39718   1.00
C4       0.41458    1.14400    0.41503   1.00
O3       0.44482    1.18667    0.35046   1.00
C5       0.48065    1.05220    0.47962   1.00
H2       0.47885    1.07891    0.49821   1.00
C5       0.51948    1.03174    0.48689   1.00
H2       0.45623    1.03226    0.48764   1.00
H2       0.54274    1.05432    0.48916   1.00
H2       0.52627    1.01407    0.46046   1.00
C5       0.51903    1.00582    0.52357   1.00
H2       0.50921    1.02324    0.54910   1.00
C5       0.56002    0.98953    0.53209   1.00
H2       0.49935    0.98007    0.51972   1.00
C5       0.49752    1.15517    0.31872   1.00
H2       0.50043    1.17715    0.29495   1.00
H2       0.47408    1.13452    0.30971   1.00
C5       0.53612    1.13300    0.32482   1.00
C5       0.55111    1.11725    0.28552   1.00
H2       0.30717    1.35786    0.56859   1.00
H2       0.25701    1.34947    0.54953   1.00
H2       0.28523    1.30823    0.57078   1.00
H2       0.28611    1.19605    0.23327   1.00
H2       0.25562    1.17051    0.27025   1.00
H2       0.27909    1.21793    0.28248   1.00
H2       0.55737    0.95887    0.54469   1.00
H2       0.57759    0.98844    0.50388   1.00
H2       0.57544    1.00923    0.55400   1.00
H2       0.52768    1.12134    0.26227   1.00
H2       0.57854    1.13384    0.27666   1.00
H2       0.55822    1.08490    0.28852   1.00
C5       0.03282    1.01556    0.49221   1.00
H2       0.01755    1.02404    0.46493   1.00
H2       0.05410    1.03927    0.49819   1.00
C5       0.00306    1.01241    0.52572   1.00
C5       -0.00623   1.05296    0.54268   1.00
H2       0.01485    0.99349    0.54934   1.00
O3       0.18500    0.88210    0.47771   1.00
C4       0.14400    0.91497    0.41458   1.00
C3c      0.12257    0.94621    0.43020   1.00
H1       0.13775    0.97099    0.44247   1.00
C3d      0.12365    0.88321    0.39823   1.00
C3       0.08146    0.94581    0.43079   1.00
O2       0.06252    0.97935    0.44214   1.00
C3       0.08273    0.88239    0.39945   1.00
H1       0.06843    0.85679    0.38781   1.00
C2       0.06061    0.91354    0.41552   1.00
C5       0.18621    0.84094    0.47616   1.00
H2       0.21662    0.82948    0.47751   1.00
H2       0.17234    0.82983    0.44887   1.00
C5       0.16371    0.82547    0.51128   1.00
H2       0.13363    0.83780    0.51053   1.00
H2       0.17802    0.83644    0.53835   1.00
C5       0.16238    0.78056    0.51109   1.00
H2       0.19232    0.76805    0.51156   1.00
H2       0.14689    0.76961    0.48474   1.00
C5       0.14055    0.76567    0.54743   1.00
C5       0.15395    0.85569    0.34575   1.00
C5       0.05430    0.97781    0.48255   1.00
H2       0.17412    0.88087    0.34224   1.00
H2       0.12788    0.86049    0.32684   1.00
H2       0.08200    0.97591    0.49956   1.00
H2       0.03605    0.95197    0.49062   1.00
H2       -0.02530   1.00014    0.51524   1.00
H2       0.22253    0.84465    0.29793   1.00
H2       0.17737    0.83712    0.27114   1.00
C2       0.26895    0.91248    0.41591   1.00
C3       0.24903    0.93096    0.38495   1.00
O2       0.26826    0.93959    0.35065   1.00
C3       0.24674    0.89677    0.44698   1.00
H1       0.26115    0.88334    0.47160   1.00
C3a      0.20787    0.93244    0.38517   1.00
H1       0.19298    0.94470    0.36020   1.00
C3b      0.20578    0.89718    0.44651   1.00
C4       0.18600    0.91503    0.41542   1.00
O3       0.14333    0.85046    0.38518   1.00
C5       0.27780    0.97962    0.34935   1.00
H2       0.25109    0.99821    0.35115   1.00
C5       0.29826    0.98689    0.31052   1.00
H2       0.29774    0.98764    0.37377   1.00
H2       0.27568    0.98916    0.28726   1.00
H2       0.31593    0.96046    0.30373   1.00
C5       0.32418    1.02357    0.31097   1.00
H2       0.30676    1.04910    0.32079   1.00
C5       0.34047    1.03209    0.26998   1.00
H2       0.34993    1.01972    0.33065   1.00
C5       0.17483    0.81872    0.33248   1.00
H2       0.15285    0.79495    0.32957   1.00
H2       0.19548    0.80971    0.35592   1.00
C5       0.19700    0.82482    0.29388   1.00
C5       0.21275    0.78552    0.27889   1.00
H2       -0.02786   1.06859    0.52283   1.00
H2       -0.01947   1.04953    0.57299   1.00
H2       0.02177    1.07078    0.54477   1.00
H2       0.13395    0.73327    0.54389   1.00
H2       0.15949    0.77025    0.57438   1.00
H2       0.11207    0.78248    0.55091   1.00
H2       0.37113    1.04469    0.27263   1.00
H2       0.34156    1.00388    0.25241   1.00
H2       0.32077    1.05400    0.25456   1.00
H2       0.20866    0.76227    0.30232   1.00
H2       0.19616    0.77666    0.25146   1.00
H2       0.24510    0.78852    0.27178   1.00
C5       0.79718    1.01556    0.33779   1.00
H2       0.81245    1.02404    0.36507   1.00
H2       0.77590    1.03927    0.33181   1.00
C5       0.82694    1.01241    0.30428   1.00
C5       0.83623    1.05296    0.28732   1.00
H2       0.81515    0.99349    0.28066   1.00
O3       0.64500    0.88210    0.35229   1.00
C4       0.68600    0.91497    0.41542   1.00
C3c      0.70743    0.94621    0.39980   1.00
H1       0.69225    0.97099    0.38753   1.00
C3d      0.70635    0.88321    0.43177   1.00
C3       0.74854    0.94581    0.39921   1.00
O2       0.76748    0.97935    0.38786   1.00
C3       0.74727    0.88239    0.43055   1.00
H1       0.76157    0.85679    0.44219   1.00
C2       0.76939    0.91354    0.41448   1.00
C5       0.64379    0.84094    0.35384   1.00
H2       0.61338    0.82948    0.35249   1.00
H2       0.65766    0.82983    0.38113   1.00
C5       0.66629    0.82547    0.31872   1.00
H2       0.69637    0.83780    0.31947   1.00
H2       0.65198    0.83644    0.29165   1.00
C5       0.66762    0.78056    0.31891   1.00
H2       0.63768    0.76805    0.31844   1.00
H2       0.68311    0.76961    0.34526   1.00
C5       0.68945    0.76567    0.28257   1.00
C5       0.67605    0.85569    0.48425   1.00
C5       0.77570    0.97781    0.34745   1.00
H2       0.65588    0.88087    0.48776   1.00
H2       0.70212    0.86049    0.50316   1.00
H2       0.74800    0.97591    0.33044   1.00
H2       0.79395    0.95197    0.33938   1.00
H2       0.85530    1.00014    0.31476   1.00
H2       0.60747    0.84465    0.53207   1.00
H2       0.65263    0.83712    0.55886   1.00
C2       0.56105    0.91248    0.41409   1.00
C3       0.58097    0.93096    0.44505   1.00
O2       0.56174    0.93959    0.47935   1.00
C3       0.58326    0.89677    0.38302   1.00
H1       0.56885    0.88334    0.35840   1.00
C3a      0.62213    0.93244    0.44483   1.00
H1       0.63702    0.94470    0.46980   1.00
C3b      0.62422    0.89718    0.38349   1.00
C4       0.64400    0.91503    0.41458   1.00
O3       0.68667    0.85046    0.44482   1.00
C5       0.55220    0.97962    0.48065   1.00
H2       0.57891    0.99821    0.47885   1.00
C5       0.53174    0.98689    0.51948   1.00
H2       0.53226    0.98764    0.45623   1.00
H2       0.55432    0.98916    0.54274   1.00
H2       0.51407    0.96046    0.52627   1.00
C5       0.50582    1.02357    0.51903   1.00
H2       0.52324    1.04910    0.50921   1.00
C5       0.48953    1.03209    0.56002   1.00
H2       0.48007    1.01972    0.49935   1.00
C5       0.65517    0.81872    0.49752   1.00
H2       0.67715    0.79495    0.50043   1.00
H2       0.63452    0.80971    0.47408   1.00
C5       0.63300    0.82482    0.53612   1.00
C5       0.61725    0.78552    0.55111   1.00
H2       0.85786    1.06859    0.30717   1.00
H2       0.84947    1.04953    0.25701   1.00
H2       0.80823    1.07078    0.28523   1.00
H2       0.69605    0.73327    0.28611   1.00
H2       0.67051    0.77025    0.25562   1.00
H2       0.71793    0.78248    0.27909   1.00
H2       0.45887    1.04469    0.55737   1.00
H2       0.48844    1.00388    0.57759   1.00
H2       0.50923    1.05400    0.57544   1.00
H2       0.62134    0.76227    0.52768   1.00
H2       0.63384    0.77666    0.57854   1.00
H2       0.58490    0.78852    0.55822   1.00
C5       0.49221    0.53282    0.51556   1.00
H2       0.46493    0.51755    0.52404   1.00
H2       0.49819    0.55410    0.53927   1.00
C5       0.52572    0.50306    0.51241   1.00
C5       0.54268    0.49377    0.55296   1.00
H2       0.54934    0.51485    0.49349   1.00
O3       0.47771    0.68500    0.38210   1.00
C4       0.41458    0.64400    0.41497   1.00
C3c      0.43020    0.62257    0.44621   1.00
H1       0.44247    0.63775    0.47099   1.00
C3d      0.39823    0.62365    0.38321   1.00
C3       0.43079    0.58146    0.44581   1.00
O2       0.44214    0.56252    0.47935   1.00
C3       0.39945    0.58273    0.38239   1.00
H1       0.38781    0.56843    0.35679   1.00
C2       0.41552    0.56061    0.41354   1.00
C5       0.47616    0.68621    0.34094   1.00
H2       0.47751    0.71662    0.32948   1.00
H2       0.44887    0.67234    0.32983   1.00
C5       0.51128    0.66371    0.32547   1.00
H2       0.51053    0.63363    0.33780   1.00
H2       0.53835    0.67802    0.33644   1.00
C5       0.51109    0.66238    0.28056   1.00
H2       0.51156    0.69232    0.26805   1.00
H2       0.48474    0.64689    0.26961   1.00
C5       0.54743    0.64055    0.26567   1.00
C5       0.34575    0.65395    0.35569   1.00
C5       0.48255    0.55430    0.47781   1.00
H2       0.34224    0.67412    0.38087   1.00
H2       0.32684    0.62788    0.36049   1.00
H2       0.49956    0.58200    0.47591   1.00
H2       0.49062    0.53605    0.45197   1.00
H2       0.51524    0.47470    0.50014   1.00
H2       0.29793    0.72253    0.34465   1.00
H2       0.27114    0.67737    0.33712   1.00
C2       0.41591    0.76895    0.41248   1.00
C3       0.38495    0.74903    0.43096   1.00
O2       0.35065    0.76826    0.43959   1.00
C3       0.44698    0.74674    0.39677   1.00
H1       0.47160    0.76115    0.38334   1.00
C3a      0.38517    0.70787    0.43244   1.00
H1       0.36020    0.69298    0.44470   1.00
C3b      0.44651    0.70578    0.39718   1.00
C4       0.41542    0.68600    0.41503   1.00
O3       0.38518    0.64333    0.35046   1.00
C5       0.34935    0.77780    0.47962   1.00
H2       0.35115    0.75109    0.49821   1.00
C5       0.31052    0.79826    0.48689   1.00
H2       0.37377    0.79774    0.48764   1.00
H2       0.28726    0.77568    0.48916   1.00
H2       0.30373    0.81593    0.46046   1.00
C5       0.31097    0.82418    0.52357   1.00
H2       0.32079    0.80676    0.54910   1.00
C5       0.26998    0.84047    0.53209   1.00
H2       0.33065    0.84993    0.51972   1.00
C5       0.33248    0.67483    0.31872   1.00
H2       0.32957    0.65285    0.29495   1.00
H2       0.35592    0.69548    0.30971   1.00
C5       0.29388    0.69700    0.32482   1.00
C5       0.27889    0.71275    0.28552   1.00
H2       0.52283    0.47214    0.56859   1.00
H2       0.57299    0.48053    0.54953   1.00
H2       0.54477    0.52177    0.57078   1.00
H2       0.54389    0.63395    0.23327   1.00
H2       0.57438    0.65949    0.27025   1.00
H2       0.55091    0.61207    0.28248   1.00
H2       0.27263    0.87113    0.54469   1.00
H2       0.25241    0.84156    0.50388   1.00
H2       0.25456    0.82077    0.55400   1.00
H2       0.30232    0.70866    0.26227   1.00
H2       0.25146    0.69616    0.27666   1.00
H2       0.27178    0.74510    0.28852   1.00
C5       0.51556    0.99221    0.03282   1.00
H2       0.52404    0.96493    0.01755   1.00
H2       0.53927    0.99819    0.05410   1.00
C5       0.51241    1.02572    0.00306   1.00
C5       0.55296    1.04268    -0.00623   1.00
H2       0.49349    1.04934    0.01485   1.00
O3       0.38210    0.97771    0.18500   1.00
C4       0.41497    0.91458    0.14400   1.00
C3c      0.44621    0.93020    0.12257   1.00
H1       0.47099    0.94247    0.13775   1.00
C3d      0.38321    0.89823    0.12365   1.00
C3       0.44581    0.93079    0.08146   1.00
O2       0.47935    0.94214    0.06252   1.00
C3       0.38239    0.89945    0.08273   1.00
H1       0.35679    0.88781    0.06843   1.00
C2       0.41354    0.91552    0.06061   1.00
C5       0.34094    0.97616    0.18621   1.00
H2       0.32948    0.97751    0.21662   1.00
H2       0.32983    0.94887    0.17234   1.00
C5       0.32547    1.01128    0.16371   1.00
H2       0.33780    1.01053    0.13363   1.00
H2       0.33644    1.03835    0.17802   1.00
C5       0.28056    1.01109    0.16238   1.00
H2       0.26805    1.01156    0.19232   1.00
H2       0.26961    0.98474    0.14689   1.00
C5       0.26567    1.04743    0.14055   1.00
C5       0.35569    0.84575    0.15395   1.00
C5       0.47781    0.98255    0.05430   1.00
H2       0.38087    0.84224    0.17412   1.00
H2       0.36049    0.82684    0.12788   1.00
H2       0.47591    0.99956    0.08200   1.00
H2       0.45197    0.99062    0.03605   1.00
H2       0.50014    1.01524    -0.02530   1.00
H2       0.34465    0.79793    0.22253   1.00
H2       0.33712    0.77114    0.17737   1.00
C2       0.41248    0.91591    0.26895   1.00
C3       0.43096    0.88495    0.24903   1.00
O2       0.43959    0.85065    0.26826   1.00
C3       0.39677    0.94698    0.24674   1.00
H1       0.38334    0.97160    0.26115   1.00
C3a      0.43244    0.88517    0.20787   1.00
H1       0.44470    0.86020    0.19298   1.00
C3b      0.39718    0.94651    0.20578   1.00
C4       0.41503    0.91542    0.18600   1.00
O3       0.35046    0.88518    0.14333   1.00
C5       0.47962    0.84935    0.27780   1.00
H2       0.49821    0.85115    0.25109   1.00
C5       0.48689    0.81052    0.29826   1.00
H2       0.48764    0.87377    0.29774   1.00
H2       0.48916    0.78726    0.27568   1.00
H2       0.46046    0.80373    0.31593   1.00
C5       0.52357    0.81097    0.32418   1.00
H2       0.54910    0.82079    0.30676   1.00
C5       0.53209    0.76998    0.34047   1.00
H2       0.51972    0.83065    0.34993   1.00
C5       0.31872    0.83248    0.17483   1.00
H2       0.29495    0.82957    0.15285   1.00
H2       0.30971    0.85592    0.19548   1.00
C5       0.32482    0.79388    0.19700   1.00
C5       0.28552    0.77889    0.21275   1.00
H2       0.56859    1.02283    -0.02786   1.00
H2       0.54953    1.07299    -0.01947   1.00
H2       0.57078    1.04477    0.02177   1.00
H2       0.23327    1.04389    0.13395   1.00
H2       0.27025    1.07438    0.15949   1.00
H2       0.28248    1.05091    0.11207   1.00
H2       0.54469    0.77263    0.37113   1.00
H2       0.50388    0.75241    0.34156   1.00
H2       0.55400    0.75456    0.32077   1.00
H2       0.26227    0.80232    0.20866   1.00
H2       0.27666    0.75146    0.19616   1.00
H2       0.28852    0.77178    0.24510   1.00
C5       1.01556    0.33779    0.79718   1.00
H2       1.02404    0.36507    0.81245   1.00
H2       1.03927    0.33181    0.77590   1.00
C5       1.01241    0.30428    0.82694   1.00
C5       1.05296    0.28732    0.83623   1.00
H2       0.99349    0.28066    0.81515   1.00
O3       0.88210    0.35229    0.64500   1.00
C4       0.91497    0.41542    0.68600   1.00
C3c      0.94621    0.39980    0.70743   1.00
H1       0.97099    0.38753    0.69225   1.00
C3d      0.88321    0.43177    0.70635   1.00
C3       0.94581    0.39921    0.74854   1.00
O2       0.97935    0.38786    0.76748   1.00
C3       0.88239    0.43055    0.74727   1.00
H1       0.85679    0.44219    0.76157   1.00
C2       0.91354    0.41448    0.76939   1.00
C5       0.84094    0.35384    0.64379   1.00
H2       0.82948    0.35249    0.61338   1.00
H2       0.82983    0.38113    0.65766   1.00
C5       0.82547    0.31872    0.66629   1.00
H2       0.83780    0.31947    0.69637   1.00
H2       0.83644    0.29165    0.65198   1.00
C5       0.78056    0.31891    0.66762   1.00
H2       0.76805    0.31844    0.63768   1.00
H2       0.76961    0.34526    0.68311   1.00
C5       0.76567    0.28257    0.68945   1.00
C5       0.85569    0.48425    0.67605   1.00
C5       0.97781    0.34745    0.77570   1.00
H2       0.88087    0.48776    0.65588   1.00
H2       0.86049    0.50316    0.70212   1.00
H2       0.97591    0.33044    0.74800   1.00
H2       0.95197    0.33938    0.79395   1.00
H2       1.00014    0.31476    0.85530   1.00
H2       0.84465    0.53207    0.60747   1.00
H2       0.83712    0.55886    0.65263   1.00
C2       0.91248    0.41409    0.56105   1.00
C3       0.93096    0.44505    0.58097   1.00
O2       0.93959    0.47935    0.56174   1.00
C3       0.89677    0.38302    0.58326   1.00
H1       0.88334    0.35840    0.56885   1.00
C3a      0.93244    0.44483    0.62213   1.00
H1       0.94470    0.46980    0.63702   1.00
C3b      0.89718    0.38349    0.62422   1.00
C4       0.91503    0.41458    0.64400   1.00
O3       0.85046    0.44482    0.68667   1.00
C5       0.97962    0.48065    0.55220   1.00
H2       0.99821    0.47885    0.57891   1.00
C5       0.98689    0.51948    0.53174   1.00
H2       0.98764    0.45623    0.53226   1.00
H2       0.98916    0.54274    0.55432   1.00
H2       0.96046    0.52627    0.51407   1.00
C5       1.02357    0.51903    0.50582   1.00
H2       1.04910    0.50921    0.52324   1.00
C5       1.03209    0.56002    0.48953   1.00
H2       1.01972    0.49935    0.48007   1.00
C5       0.81872    0.49752    0.65517   1.00
H2       0.79495    0.50043    0.67715   1.00
H2       0.80971    0.47408    0.63452   1.00
C5       0.82482    0.53612    0.63300   1.00
C5       0.78552    0.55111    0.61725   1.00
H2       1.06859    0.30717    0.85786   1.00
H2       1.04953    0.25701    0.84947   1.00
H2       1.07078    0.28523    0.80823   1.00
H2       0.73327    0.28611    0.69605   1.00
H2       0.77025    0.25562    0.67051   1.00
H2       0.78248    0.27909    0.71793   1.00
H2       1.04469    0.55737    0.45887   1.00
H2       1.00388    0.57759    0.48844   1.00
H2       1.05400    0.57544    0.50923   1.00
H2       0.76227    0.52768    0.62134   1.00
H2       0.77666    0.57854    0.63384   1.00
H2       0.78852    0.55822    0.58490   1.00
C5       0.83779    0.79718    0.51556   1.00
H2       0.86507    0.81245    0.52404   1.00
H2       0.83181    0.77590    0.53927   1.00
C5       0.80428    0.82694    0.51241   1.00
C5       0.78732    0.83623    0.55296   1.00
H2       0.78066    0.81515    0.49349   1.00
O3       0.85229    0.64500    0.38210   1.00
C4       0.91542    0.68600    0.41497   1.00
C3c      0.89980    0.70743    0.44621   1.00
H1       0.88753    0.69225    0.47099   1.00
C3d      0.93177    0.70635    0.38321   1.00
C3       0.89921    0.74854    0.44581   1.00
O2       0.88786    0.76748    0.47935   1.00
C3       0.93055    0.74727    0.38239   1.00
H1       0.94219    0.76157    0.35679   1.00
C2       0.91448    0.76939    0.41354   1.00
C5       0.85384    0.64379    0.34094   1.00
H2       0.85249    0.61338    0.32948   1.00
H2       0.88113    0.65766    0.32983   1.00
C5       0.81872    0.66629    0.32547   1.00
H2       0.81947    0.69637    0.33780   1.00
H2       0.79165    0.65198    0.33644   1.00
C5       0.81891    0.66762    0.28056   1.00
H2       0.81844    0.63768    0.26805   1.00
H2       0.84526    0.68311    0.26961   1.00
C5       0.78257    0.68945    0.26567   1.00
C5       0.98425    0.67605    0.35569   1.00
C5       0.84745    0.77570    0.47781   1.00
H2       0.98776    0.65588    0.38087   1.00
H2       1.00316    0.70212    0.36049   1.00
H2       0.83044    0.74800    0.47591   1.00
H2       0.83938    0.79395    0.45197   1.00
H2       0.81476    0.85530    0.50014   1.00
H2       1.03207    0.60747    0.34465   1.00
H2       1.05886    0.65263    0.33712   1.00
C2       0.91409    0.56105    0.41248   1.00
C3       0.94505    0.58097    0.43096   1.00
O2       0.97935    0.56174    0.43959   1.00
C3       0.88302    0.58326    0.39677   1.00
H1       0.85840    0.56885    0.38334   1.00
C3a      0.94483    0.62213    0.43244   1.00
H1       0.96980    0.63702    0.44470   1.00
C3b      0.88349    0.62422    0.39718   1.00
C4       0.91458    0.64400    0.41503   1.00
O3       0.94482    0.68667    0.35046   1.00
C5       0.98065    0.55220    0.47962   1.00
H2       0.97885    0.57891    0.49821   1.00
C5       1.01948    0.53174    0.48689   1.00
H2       0.95623    0.53226    0.48764   1.00
H2       1.04274    0.55432    0.48916   1.00
H2       1.02627    0.51407    0.46046   1.00
C5       1.01903    0.50582    0.52357   1.00
H2       1.00921    0.52324    0.54910   1.00
C5       1.06002    0.48953    0.53209   1.00
H2       0.99935    0.48007    0.51972   1.00
C5       0.99752    0.65517    0.31872   1.00
H2       1.00043    0.67715    0.29495   1.00
H2       0.97408    0.63452    0.30971   1.00
C5       1.03612    0.63300    0.32482   1.00
C5       1.05111    0.61725    0.28552   1.00
H2       0.80717    0.85786    0.56859   1.00
H2       0.75701    0.84947    0.54953   1.00
H2       0.78523    0.80823    0.57078   1.00
H2       0.78611    0.69605    0.23327   1.00
H2       0.75562    0.67051    0.27025   1.00
H2       0.77909    0.71793    0.28248   1.00
H2       1.05737    0.45887    0.54469   1.00
H2       1.07759    0.48844    0.50388   1.00
H2       1.07544    0.50923    0.55400   1.00
H2       1.02768    0.62134    0.26227   1.00
H2       1.07854    0.63384    0.27666   1.00
H2       1.05822    0.58490    0.28852   1.00
C5       0.53282    0.51556    0.49221   1.00
H2       0.51755    0.52404    0.46493   1.00
H2       0.55410    0.53927    0.49819   1.00
C5       0.50306    0.51241    0.52572   1.00
C5       0.49377    0.55296    0.54268   1.00
H2       0.51485    0.49349    0.54934   1.00
O3       0.68500    0.38210    0.47771   1.00
C4       0.64400    0.41497    0.41458   1.00
C3c      0.62257    0.44621    0.43020   1.00
H1       0.63775    0.47099    0.44247   1.00
C3d      0.62365    0.38321    0.39823   1.00
C3       0.58146    0.44581    0.43079   1.00
O2       0.56252    0.47935    0.44214   1.00
C3       0.58273    0.38239    0.39945   1.00
H1       0.56843    0.35679    0.38781   1.00
C2       0.56061    0.41354    0.41552   1.00
C5       0.68621    0.34094    0.47616   1.00
H2       0.71662    0.32948    0.47751   1.00
H2       0.67234    0.32983    0.44887   1.00
C5       0.66371    0.32547    0.51128   1.00
H2       0.63363    0.33780    0.51053   1.00
H2       0.67802    0.33644    0.53835   1.00
C5       0.66238    0.28056    0.51109   1.00
H2       0.69232    0.26805    0.51156   1.00
H2       0.64689    0.26961    0.48474   1.00
C5       0.64055    0.26567    0.54743   1.00
C5       0.65395    0.35569    0.34575   1.00
C5       0.55430    0.47781    0.48255   1.00
H2       0.67412    0.38087    0.34224   1.00
H2       0.62788    0.36049    0.32684   1.00
H2       0.58200    0.47591    0.49956   1.00
H2       0.53605    0.45197    0.49062   1.00
H2       0.47470    0.50014    0.51524   1.00
H2       0.72253    0.34465    0.29793   1.00
H2       0.67737    0.33712    0.27114   1.00
C2       0.76895    0.41248    0.41591   1.00
C3       0.74903    0.43096    0.38495   1.00
O2       0.76826    0.43959    0.35065   1.00
C3       0.74674    0.39677    0.44698   1.00
H1       0.76115    0.38334    0.47160   1.00
C3a      0.70787    0.43244    0.38517   1.00
H1       0.69298    0.44470    0.36020   1.00
C3b      0.70578    0.39718    0.44651   1.00
C4       0.68600    0.41503    0.41542   1.00
O3       0.64333    0.35046    0.38518   1.00
C5       0.77780    0.47962    0.34935   1.00
H2       0.75109    0.49821    0.35115   1.00
C5       0.79826    0.48689    0.31052   1.00
H2       0.79774    0.48764    0.37377   1.00
H2       0.77568    0.48916    0.28726   1.00
H2       0.81593    0.46046    0.30373   1.00
C5       0.82418    0.52357    0.31097   1.00
H2       0.80676    0.54910    0.32079   1.00
C5       0.84047    0.53209    0.26998   1.00
H2       0.84993    0.51972    0.33065   1.00
C5       0.67483    0.31872    0.33248   1.00
H2       0.65285    0.29495    0.32957   1.00
H2       0.69548    0.30971    0.35592   1.00
C5       0.69700    0.32482    0.29388   1.00
C5       0.71275    0.28552    0.27889   1.00
H2       0.47214    0.56859    0.52283   1.00
H2       0.48053    0.54953    0.57299   1.00
H2       0.52177    0.57078    0.54477   1.00
H2       0.63395    0.23327    0.54389   1.00
H2       0.65949    0.27025    0.57438   1.00
H2       0.61207    0.28248    0.55091   1.00
H2       0.87113    0.54469    0.27263   1.00
H2       0.84156    0.50388    0.25241   1.00
H2       0.82077    0.55400    0.25456   1.00
H2       0.70866    0.26227    0.30232   1.00
H2       0.69616    0.27666    0.25146   1.00
H2       0.74510    0.28852    0.27178   1.00
C5       1.29718    0.51556    0.33779   1.00
H2       1.31245    0.52404    0.36507   1.00
H2       1.27590    0.53927    0.33181   1.00
C5       1.32694    0.51241    0.30428   1.00
C5       1.33623    0.55296    0.28732   1.00
H2       1.31515    0.49349    0.28066   1.00
O3       1.14500    0.38210    0.35229   1.00
C4       1.18600    0.41497    0.41542   1.00
C3c      1.20743    0.44621    0.39980   1.00
H1       1.19225    0.47099    0.38753   1.00
C3d      1.20635    0.38321    0.43177   1.00
C3       1.24854    0.44581    0.39921   1.00
O2       1.26748    0.47935    0.38786   1.00
C3       1.24727    0.38239    0.43055   1.00
H1       1.26157    0.35679    0.44219   1.00
C2       1.26939    0.41354    0.41448   1.00
C5       1.14379    0.34094    0.35384   1.00
H2       1.11338    0.32948    0.35249   1.00
H2       1.15766    0.32983    0.38113   1.00
C5       1.16629    0.32547    0.31872   1.00
H2       1.19637    0.33780    0.31947   1.00
H2       1.15198    0.33644    0.29165   1.00
C5       1.16762    0.28056    0.31891   1.00
H2       1.13768    0.26805    0.31844   1.00
H2       1.18311    0.26961    0.34526   1.00
C5       1.18945    0.26567    0.28257   1.00
C5       1.17605    0.35569    0.48425   1.00
C5       1.27570    0.47781    0.34745   1.00
H2       1.15588    0.38087    0.48776   1.00
H2       1.20212    0.36049    0.50316   1.00
H2       1.24800    0.47591    0.33044   1.00
H2       1.29395    0.45197    0.33938   1.00
H2       1.35530    0.50014    0.31476   1.00
H2       1.10747    0.34465    0.53207   1.00
H2       1.15263    0.33712    0.55886   1.00
C2       1.06105    0.41248    0.41409   1.00
C3       1.08097    0.43096    0.44505   1.00
O2       1.06174    0.43959    0.47935   1.00
C3       1.08326    0.39677    0.38302   1.00
H1       1.06885    0.38334    0.35840   1.00
C3a      1.12213    0.43244    0.44483   1.00
H1       1.13702    0.44470    0.46980   1.00
C3b      1.12422    0.39718    0.38349   1.00
C4       1.14400    0.41503    0.41458   1.00
O3       1.18667    0.35046    0.44482   1.00
C5       1.05220    0.47962    0.48065   1.00
H2       1.07891    0.49821    0.47885   1.00
C5       1.03174    0.48689    0.51948   1.00
H2       1.03226    0.48764    0.45623   1.00
H2       1.05432    0.48916    0.54274   1.00
H2       1.01407    0.46046    0.52627   1.00
C5       1.00582    0.52357    0.51903   1.00
H2       1.02324    0.54910    0.50921   1.00
C5       0.98953    0.53209    0.56002   1.00
H2       0.98007    0.51972    0.49935   1.00
C5       1.15517    0.31872    0.49752   1.00
H2       1.17715    0.29495    0.50043   1.00
H2       1.13452    0.30971    0.47408   1.00
C5       1.13300    0.32482    0.53612   1.00
C5       1.11725    0.28552    0.55111   1.00
H2       1.35786    0.56859    0.30717   1.00
H2       1.34947    0.54953    0.25701   1.00
H2       1.30823    0.57078    0.28523   1.00
H2       1.19605    0.23327    0.28611   1.00
H2       1.17051    0.27025    0.25562   1.00
H2       1.21793    0.28248    0.27909   1.00
H2       0.95887    0.54469    0.55737   1.00
H2       0.98844    0.50388    0.57759   1.00
H2       1.00923    0.55400    0.57544   1.00
H2       1.12134    0.26227    0.52768   1.00
H2       1.13384    0.27666    0.57854   1.00
H2       1.08490    0.28852    0.55822   1.00
C5       0.99221    0.03282    0.51556   1.00
H2       0.96493    0.01755    0.52404   1.00
H2       0.99819    0.05410    0.53927   1.00
C5       1.02572    0.00306    0.51241   1.00
C5       1.04268    -0.00623   0.55296   1.00
H2       1.04934    0.01485    0.49349   1.00
O3       0.97771    0.18500    0.38210   1.00
C4       0.91458    0.14400    0.41497   1.00
C3c      0.93020    0.12257    0.44621   1.00
H1       0.94247    0.13775    0.47099   1.00
C3d      0.89823    0.12365    0.38321   1.00
C3       0.93079    0.08146    0.44581   1.00
O2       0.94214    0.06252    0.47935   1.00
C3       0.89945    0.08273    0.38239   1.00
H1       0.88781    0.06843    0.35679   1.00
C2       0.91552    0.06061    0.41354   1.00
C5       0.97616    0.18621    0.34094   1.00
H2       0.97751    0.21662    0.32948   1.00
H2       0.94887    0.17234    0.32983   1.00
C5       1.01128    0.16371    0.32547   1.00
H2       1.01053    0.13363    0.33780   1.00
H2       1.03835    0.17802    0.33644   1.00
C5       1.01109    0.16238    0.28056   1.00
H2       1.01156    0.19232    0.26805   1.00
H2       0.98474    0.14689    0.26961   1.00
C5       1.04743    0.14055    0.26567   1.00
C5       0.84575    0.15395    0.35569   1.00
C5       0.98255    0.05430    0.47781   1.00
H2       0.84224    0.17412    0.38087   1.00
H2       0.82684    0.12788    0.36049   1.00
H2       0.99956    0.08200    0.47591   1.00
H2       0.99062    0.03605    0.45197   1.00
H2       1.01524    -0.02530   0.50014   1.00
H2       0.79793    0.22253    0.34465   1.00
H2       0.77114    0.17737    0.33712   1.00
C2       0.91591    0.26895    0.41248   1.00
C3       0.88495    0.24903    0.43096   1.00
O2       0.85065    0.26826    0.43959   1.00
C3       0.94698    0.24674    0.39677   1.00
H1       0.97160    0.26115    0.38334   1.00
C3a      0.88517    0.20787    0.43244   1.00
H1       0.86020    0.19298    0.44470   1.00
C3b      0.94651    0.20578    0.39718   1.00
C4       0.91542    0.18600    0.41503   1.00
O3       0.88518    0.14333    0.35046   1.00
C5       0.84935    0.27780    0.47962   1.00
H2       0.85115    0.25109    0.49821   1.00
C5       0.81052    0.29826    0.48689   1.00
H2       0.87377    0.29774    0.48764   1.00
H2       0.78726    0.27568    0.48916   1.00
H2       0.80373    0.31593    0.46046   1.00
C5       0.81097    0.32418    0.52357   1.00
H2       0.82079    0.30676    0.54910   1.00
C5       0.76998    0.34047    0.53209   1.00
H2       0.83065    0.34993    0.51972   1.00
C5       0.83248    0.17483    0.31872   1.00
H2       0.82957    0.15285    0.29495   1.00
H2       0.85592    0.19548    0.30971   1.00
C5       0.79388    0.19700    0.32482   1.00
C5       0.77889    0.21275    0.28552   1.00
H2       1.02283    -0.02786   0.56859   1.00
H2       1.07299    -0.01947   0.54953   1.00
H2       1.04477    0.02177    0.57078   1.00
H2       1.04389    0.13395    0.23327   1.00
H2       1.07438    0.15949    0.27025   1.00
H2       1.05091    0.11207    0.28248   1.00
H2       0.77263    0.37113    0.54469   1.00
H2       0.75241    0.34156    0.50388   1.00
H2       0.75456    0.32077    0.55400   1.00
H2       0.80232    0.20866    0.26227   1.00
H2       0.75146    0.19616    0.27666   1.00
H2       0.77178    0.24510    0.28852   1.00
C5       1.01556    0.49221    0.03282   1.00
H2       1.02404    0.46493    0.01755   1.00
H2       1.03927    0.49819    0.05410   1.00
C5       1.01241    0.52572    0.00306   1.00
C5       1.05296    0.54268    -0.00623   1.00
H2       0.99349    0.54934    0.01485   1.00
O3       0.88210    0.47771    0.18500   1.00
C4       0.91497    0.41458    0.14400   1.00
C3c      0.94621    0.43020    0.12257   1.00
H1       0.97099    0.44247    0.13775   1.00
C3d      0.88321    0.39823    0.12365   1.00
C3       0.94581    0.43079    0.08146   1.00
O2       0.97935    0.44214    0.06252   1.00
C3       0.88239    0.39945    0.08273   1.00
H1       0.85679    0.38781    0.06843   1.00
C2       0.91354    0.41552    0.06061   1.00
C5       0.84094    0.47616    0.18621   1.00
H2       0.82948    0.47751    0.21662   1.00
H2       0.82983    0.44887    0.17234   1.00
C5       0.82547    0.51128    0.16371   1.00
H2       0.83780    0.51053    0.13363   1.00
H2       0.83644    0.53835    0.17802   1.00
C5       0.78056    0.51109    0.16238   1.00
H2       0.76805    0.51156    0.19232   1.00
H2       0.76961    0.48474    0.14689   1.00
C5       0.76567    0.54743    0.14055   1.00
C5       0.85569    0.34575    0.15395   1.00
C5       0.97781    0.48255    0.05430   1.00
H2       0.88087    0.34224    0.17412   1.00
H2       0.86049    0.32684    0.12788   1.00
H2       0.97591    0.49956    0.08200   1.00
H2       0.95197    0.49062    0.03605   1.00
H2       1.00014    0.51524    -0.02530   1.00
H2       0.84465    0.29793    0.22253   1.00
H2       0.83712    0.27114    0.17737   1.00
C2       0.91248    0.41591    0.26895   1.00
C3       0.93096    0.38495    0.24903   1.00
O2       0.93959    0.35065    0.26826   1.00
C3       0.89677    0.44698    0.24674   1.00
H1       0.88334    0.47160    0.26115   1.00
C3a      0.93244    0.38517    0.20787   1.00
H1       0.94470    0.36020    0.19298   1.00
C3b      0.89718    0.44651    0.20578   1.00
C4       0.91503    0.41542    0.18600   1.00
O3       0.85046    0.38518    0.14333   1.00
C5       0.97962    0.34935    0.27780   1.00
H2       0.99821    0.35115    0.25109   1.00
C5       0.98689    0.31052    0.29826   1.00
H2       0.98764    0.37377    0.29774   1.00
H2       0.98916    0.28726    0.27568   1.00
H2       0.96046    0.30373    0.31593   1.00
C5       1.02357    0.31097    0.32418   1.00
H2       1.04910    0.32079    0.30676   1.00
C5       1.03209    0.26998    0.34047   1.00
H2       1.01972    0.33065    0.34993   1.00
C5       0.81872    0.33248    0.17483   1.00
H2       0.79495    0.32957    0.15285   1.00
H2       0.80971    0.35592    0.19548   1.00
C5       0.82482    0.29388    0.19700   1.00
C5       0.78552    0.27889    0.21275   1.00
H2       1.06859    0.52283    -0.02786   1.00
H2       1.04953    0.57299    -0.01947   1.00
H2       1.07078    0.54477    0.02177   1.00
H2       0.73327    0.54389    0.13395   1.00
H2       0.77025    0.57438    0.15949   1.00
H2       0.78248    0.55091    0.11207   1.00
H2       1.04469    0.27263    0.37113   1.00
H2       1.00388    0.25241    0.34156   1.00
H2       1.05400    0.25456    0.32077   1.00
H2       0.76227    0.30232    0.20866   1.00
H2       0.77666    0.25146    0.19616   1.00
H2       0.78852    0.27178    0.24510   1.00
