data_IRMOF10_SG202_interpen_Ligand1cp_label_m.

_audit_creation_method             'generated by an auxiliary program of Tobunporous'

_symmetry_space_group_name_H-M     'P 1'
_symmetry_Int_Tables_number        1
_symmetry_cell_setting             triclinic

_cell_length_a                    34.2800
_cell_length_b                    34.2800
_cell_length_c                    34.2800
_cell_angle_alpha                 90.0000
_cell_angle_beta                  90.0000
_cell_angle_gamma                 90.0000

loop_
_atom_site_label
_atom_site_fract_x
_atom_site_fract_y
_atom_site_fract_z
_atom_site_occupancy
O1       0.75000    0.75000    0.75000   1.00
Zn1      0.71720    0.78280    0.78280   1.00
Zn1      0.78280    0.71720    0.78280   1.00
Zn1      0.78280    0.78280    0.71720   1.00
Zn1      0.71720    0.71720    0.71720   1.00
O2       0.72650    0.77350    0.83820   1.00
O2       0.72650    0.83820    0.77350   1.00
O2       0.66180    0.77350    0.77350   1.00
O2       0.77350    0.72650    0.83820   1.00
O2       0.83820    0.72650    0.77350   1.00
O2       0.77350    0.66180    0.77350   1.00
O2       0.77350    0.83820    0.72650   1.00
O2       0.83820    0.77350    0.72650   1.00
O2       0.77350    0.77350    0.66180   1.00
O2       0.66180    0.72650    0.72650   1.00
O2       0.72650    0.66180    0.72650   1.00
O2       0.72650    0.72650    0.66180   1.00
C1       0.75000    0.75000    0.85520   1.00
C1       0.75000    0.85520    0.75000   1.00
C1       0.64480    0.75000    0.75000   1.00
C1       0.85520    0.75000    0.75000   1.00
C1       0.75000    0.64480    0.75000   1.00
C1       0.75000    0.75000    0.64480   1.00
O1       0.25000    0.25000    0.75000   1.00
Zn1      0.21720    0.28280    0.78280   1.00
Zn1      0.28280    0.21720    0.78280   1.00
Zn1      0.28280    0.28280    0.71720   1.00
Zn1      0.21720    0.21720    0.71720   1.00
O2       0.22650    0.27350    0.83820   1.00
O2       0.22650    0.33820    0.77350   1.00
O2       0.16180    0.27350    0.77350   1.00
O2       0.27350    0.22650    0.83820   1.00
O2       0.33820    0.22650    0.77350   1.00
O2       0.27350    0.16180    0.77350   1.00
O2       0.27350    0.33820    0.72650   1.00
O2       0.33820    0.27350    0.72650   1.00
O2       0.27350    0.27350    0.66180   1.00
O2       0.16180    0.22650    0.72650   1.00
O2       0.22650    0.16180    0.72650   1.00
O2       0.22650    0.22650    0.66180   1.00
C1       0.25000    0.25000    0.85520   1.00
C1       0.25000    0.35520    0.75000   1.00
C1       0.14480    0.25000    0.75000   1.00
C1       0.35520    0.25000    0.75000   1.00
C1       0.25000    0.14480    0.75000   1.00
C1       0.25000    0.25000    0.64480   1.00
O1       0.25000    0.75000    0.25000   1.00
Zn1      0.21720    0.78280    0.28280   1.00
Zn1      0.28280    0.71720    0.28280   1.00
Zn1      0.28280    0.78280    0.21720   1.00
Zn1      0.21720    0.71720    0.21720   1.00
O2       0.22650    0.77350    0.33820   1.00
O2       0.22650    0.83820    0.27350   1.00
O2       0.16180    0.77350    0.27350   1.00
O2       0.27350    0.72650    0.33820   1.00
O2       0.33820    0.72650    0.27350   1.00
O2       0.27350    0.66180    0.27350   1.00
O2       0.27350    0.83820    0.22650   1.00
O2       0.33820    0.77350    0.22650   1.00
O2       0.27350    0.77350    0.16180   1.00
O2       0.16180    0.72650    0.22650   1.00
O2       0.22650    0.66180    0.22650   1.00
O2       0.22650    0.72650    0.16180   1.00
C1       0.25000    0.75000    0.35520   1.00
C1       0.25000    0.85520    0.25000   1.00
C1       0.14480    0.75000    0.25000   1.00
C1       0.35520    0.75000    0.25000   1.00
C1       0.25000    0.64480    0.25000   1.00
C1       0.25000    0.75000    0.14480   1.00
O1       0.75000    0.25000    0.25000   1.00
Zn1      0.71720    0.28280    0.28280   1.00
Zn1      0.78280    0.21720    0.28280   1.00
Zn1      0.78280    0.28280    0.21720   1.00
Zn1      0.71720    0.21720    0.21720   1.00
O2       0.72650    0.27350    0.33820   1.00
O2       0.72650    0.33820    0.27350   1.00
O2       0.66180    0.27350    0.27350   1.00
O2       0.77350    0.22650    0.33820   1.00
O2       0.83820    0.22650    0.27350   1.00
O2       0.77350    0.16180    0.27350   1.00
O2       0.77350    0.33820    0.22650   1.00
O2       0.83820    0.27350    0.22650   1.00
O2       0.77350    0.27350    0.16180   1.00
O2       0.66180    0.22650    0.22650   1.00
O2       0.72650    0.16180    0.22650   1.00
O2       0.72650    0.22650    0.16180   1.00
C1       0.75000    0.25000    0.35520   1.00
C1       0.75000    0.35520    0.25000   1.00
C1       0.64480    0.25000    0.25000   1.00
C1       0.85520    0.25000    0.25000   1.00
C1       0.75000    0.14480    0.25000   1.00
C1       0.75000    0.25000    0.14480   1.00
O1       0.25000    0.25000    0.25000   1.00
Zn1      0.28280    0.21720    0.21720   1.00
Zn1      0.21720    0.28280    0.21720   1.00
Zn1      0.21720    0.21720    0.28280   1.00
Zn1      0.28280    0.28280    0.28280   1.00
O2       0.27350    0.22650    0.16180   1.00
O2       0.27350    0.16180    0.22650   1.00
O2       0.33820    0.22650    0.22650   1.00
O2       0.22650    0.27350    0.16180   1.00
O2       0.16180    0.27350    0.22650   1.00
O2       0.22650    0.33820    0.22650   1.00
O2       0.22650    0.16180    0.27350   1.00
O2       0.16180    0.22650    0.27350   1.00
O2       0.22650    0.22650    0.33820   1.00
O2       0.33820    0.27350    0.27350   1.00
O2       0.27350    0.33820    0.27350   1.00
O2       0.27350    0.27350    0.33820   1.00
C1       0.25000    0.25000    0.14480   1.00
C1       0.25000    0.14480    0.25000   1.00
C1       0.35520    0.25000    0.25000   1.00
C1       0.14480    0.25000    0.25000   1.00
C1       0.25000    0.35520    0.25000   1.00
C1       0.25000    0.25000    0.35520   1.00
O1       0.75000    0.75000    0.25000   1.00
Zn1      0.78280    0.71720    0.21720   1.00
Zn1      0.71720    0.78280    0.21720   1.00
Zn1      0.71720    0.71720    0.28280   1.00
Zn1      0.78280    0.78280    0.28280   1.00
O2       0.77350    0.72650    0.16180   1.00
O2       0.77350    0.66180    0.22650   1.00
O2       0.83820    0.72650    0.22650   1.00
O2       0.72650    0.77350    0.16180   1.00
O2       0.66180    0.77350    0.22650   1.00
O2       0.72650    0.83820    0.22650   1.00
O2       0.72650    0.66180    0.27350   1.00
O2       0.66180    0.72650    0.27350   1.00
O2       0.72650    0.72650    0.33820   1.00
O2       0.83820    0.77350    0.27350   1.00
O2       0.77350    0.83820    0.27350   1.00
O2       0.77350    0.77350    0.33820   1.00
C1       0.75000    0.75000    0.14480   1.00
C1       0.75000    0.64480    0.25000   1.00
C1       0.85520    0.75000    0.25000   1.00
C1       0.64480    0.75000    0.25000   1.00
C1       0.75000    0.85520    0.25000   1.00
C1       0.75000    0.75000    0.35520   1.00
O1       0.75000    0.25000    0.75000   1.00
Zn1      0.78280    0.21720    0.71720   1.00
Zn1      0.71720    0.28280    0.71720   1.00
Zn1      0.71720    0.21720    0.78280   1.00
Zn1      0.78280    0.28280    0.78280   1.00
O2       0.77350    0.22650    0.66180   1.00
O2       0.77350    0.16180    0.72650   1.00
O2       0.83820    0.22650    0.72650   1.00
O2       0.72650    0.27350    0.66180   1.00
O2       0.66180    0.27350    0.72650   1.00
O2       0.72650    0.33820    0.72650   1.00
O2       0.72650    0.16180    0.77350   1.00
O2       0.66180    0.22650    0.77350   1.00
O2       0.72650    0.22650    0.83820   1.00
O2       0.83820    0.27350    0.77350   1.00
O2       0.77350    0.33820    0.77350   1.00
O2       0.77350    0.27350    0.83820   1.00
C1       0.75000    0.25000    0.64480   1.00
C1       0.75000    0.14480    0.75000   1.00
C1       0.85520    0.25000    0.75000   1.00
C1       0.64480    0.25000    0.75000   1.00
C1       0.75000    0.35520    0.75000   1.00
C1       0.75000    0.25000    0.85520   1.00
O1       0.25000    0.75000    0.75000   1.00
Zn1      0.28280    0.71720    0.71720   1.00
Zn1      0.21720    0.78280    0.71720   1.00
Zn1      0.21720    0.71720    0.78280   1.00
Zn1      0.28280    0.78280    0.78280   1.00
O2       0.27350    0.72650    0.66180   1.00
O2       0.27350    0.66180    0.72650   1.00
O2       0.33820    0.72650    0.72650   1.00
O2       0.22650    0.77350    0.66180   1.00
O2       0.16180    0.77350    0.72650   1.00
O2       0.22650    0.83820    0.72650   1.00
O2       0.22650    0.66180    0.77350   1.00
O2       0.16180    0.72650    0.77350   1.00
O2       0.22650    0.72650    0.83820   1.00
O2       0.33820    0.77350    0.77350   1.00
O2       0.27350    0.83820    0.77350   1.00
O2       0.27350    0.77350    0.83820   1.00
C1       0.25000    0.75000    0.64480   1.00
C1       0.25000    0.64480    0.75000   1.00
C1       0.35520    0.75000    0.75000   1.00
C1       0.14480    0.75000    0.75000   1.00
C1       0.25000    0.85520    0.75000   1.00
C1       0.25000    0.75000    0.85520   1.00
O1       0.91500    0.91500    0.91500   1.00
Zn1      0.88220    0.94780    0.94780   1.00
Zn1      0.94780    0.88220    0.94780   1.00
Zn1      0.94780    0.94780    0.88220   1.00
Zn1      0.88220    0.88220    0.88220   1.00
O2       0.89150    0.93850    1.00320   1.00
O2       0.89150    1.00320    0.93850   1.00
O2       0.82680    0.93850    0.93850   1.00
O2       0.93850    0.89150    1.00320   1.00
O2       1.00320    0.89150    0.93850   1.00
O2       0.93850    0.82680    0.93850   1.00
O2       0.93850    1.00320    0.89150   1.00
O2       1.00320    0.93850    0.89150   1.00
O2       0.93850    0.93850    0.82680   1.00
O2       0.82680    0.89150    0.89150   1.00
O2       0.89150    0.82680    0.89150   1.00
O2       0.89150    0.89150    0.82680   1.00
C1       0.91500    0.91500    1.02020   1.00
C1       0.91500    1.02020    0.91500   1.00
C1       0.80980    0.91500    0.91500   1.00
C1       1.02020    0.91500    0.91500   1.00
C1       0.91500    0.80980    0.91500   1.00
C1       0.91500    0.91500    0.80980   1.00
O1       0.41500    0.41500    0.91500   1.00
Zn1      0.38220    0.44780    0.94780   1.00
Zn1      0.44780    0.38220    0.94780   1.00
Zn1      0.44780    0.44780    0.88220   1.00
Zn1      0.38220    0.38220    0.88220   1.00
O2       0.39150    0.43850    1.00320   1.00
O2       0.39150    0.50320    0.93850   1.00
O2       0.32680    0.43850    0.93850   1.00
O2       0.43850    0.39150    1.00320   1.00
O2       0.50320    0.39150    0.93850   1.00
O2       0.43850    0.32680    0.93850   1.00
O2       0.43850    0.50320    0.89150   1.00
O2       0.50320    0.43850    0.89150   1.00
O2       0.43850    0.43850    0.82680   1.00
O2       0.32680    0.39150    0.89150   1.00
O2       0.39150    0.32680    0.89150   1.00
O2       0.39150    0.39150    0.82680   1.00
C1       0.41500    0.41500    1.02020   1.00
C1       0.41500    0.52020    0.91500   1.00
C1       0.30980    0.41500    0.91500   1.00
C1       0.52020    0.41500    0.91500   1.00
C1       0.41500    0.30980    0.91500   1.00
C1       0.41500    0.41500    0.80980   1.00
O1       0.41500    0.91500    0.41500   1.00
Zn1      0.38220    0.94780    0.44780   1.00
Zn1      0.44780    0.88220    0.44780   1.00
Zn1      0.44780    0.94780    0.38220   1.00
Zn1      0.38220    0.88220    0.38220   1.00
O2       0.39150    0.93850    0.50320   1.00
O2       0.39150    1.00320    0.43850   1.00
O2       0.32680    0.93850    0.43850   1.00
O2       0.43850    0.89150    0.50320   1.00
O2       0.50320    0.89150    0.43850   1.00
O2       0.43850    0.82680    0.43850   1.00
O2       0.43850    1.00320    0.39150   1.00
O2       0.50320    0.93850    0.39150   1.00
O2       0.43850    0.93850    0.32680   1.00
O2       0.32680    0.89150    0.39150   1.00
O2       0.39150    0.82680    0.39150   1.00
O2       0.39150    0.89150    0.32680   1.00
C1       0.41500    0.91500    0.52020   1.00
C1       0.41500    1.02020    0.41500   1.00
C1       0.30980    0.91500    0.41500   1.00
C1       0.52020    0.91500    0.41500   1.00
C1       0.41500    0.80980    0.41500   1.00
C1       0.41500    0.91500    0.30980   1.00
O1       0.91500    0.41500    0.41500   1.00
Zn1      0.88220    0.44780    0.44780   1.00
Zn1      0.94780    0.38220    0.44780   1.00
Zn1      0.94780    0.44780    0.38220   1.00
Zn1      0.88220    0.38220    0.38220   1.00
O2       0.89150    0.43850    0.50320   1.00
O2       0.89150    0.50320    0.43850   1.00
O2       0.82680    0.43850    0.43850   1.00
O2       0.93850    0.39150    0.50320   1.00
O2       1.00320    0.39150    0.43850   1.00
O2       0.93850    0.32680    0.43850   1.00
O2       0.93850    0.50320    0.39150   1.00
O2       1.00320    0.43850    0.39150   1.00
O2       0.93850    0.43850    0.32680   1.00
O2       0.82680    0.39150    0.39150   1.00
O2       0.89150    0.32680    0.39150   1.00
O2       0.89150    0.39150    0.32680   1.00
C1       0.91500    0.41500    0.52020   1.00
C1       0.91500    0.52020    0.41500   1.00
C1       0.80980    0.41500    0.41500   1.00
C1       1.02020    0.41500    0.41500   1.00
C1       0.91500    0.30980    0.41500   1.00
C1       0.91500    0.41500    0.30980   1.00
O1       0.41500    0.41500    0.41500   1.00
Zn1      0.44780    0.38220    0.38220   1.00
Zn1      0.38220    0.44780    0.38220   1.00
Zn1      0.38220    0.38220    0.44780   1.00
Zn1      0.44780    0.44780    0.44780   1.00
O2       0.43850    0.39150    0.32680   1.00
O2       0.43850    0.32680    0.39150   1.00
O2       0.50320    0.39150    0.39150   1.00
O2       0.39150    0.43850    0.32680   1.00
O2       0.32680    0.43850    0.39150   1.00
O2       0.39150    0.50320    0.39150   1.00
O2       0.39150    0.32680    0.43850   1.00
O2       0.32680    0.39150    0.43850   1.00
O2       0.39150    0.39150    0.50320   1.00
O2       0.50320    0.43850    0.43850   1.00
O2       0.43850    0.50320    0.43850   1.00
O2       0.43850    0.43850    0.50320   1.00
C1       0.41500    0.41500    0.30980   1.00
C1       0.41500    0.30980    0.41500   1.00
C1       0.52020    0.41500    0.41500   1.00
C1       0.30980    0.41500    0.41500   1.00
C1       0.41500    0.52020    0.41500   1.00
C1       0.41500    0.41500    0.52020   1.00
O1       0.91500    0.91500    0.41500   1.00
Zn1      0.94780    0.88220    0.38220   1.00
Zn1      0.88220    0.94780    0.38220   1.00
Zn1      0.88220    0.88220    0.44780   1.00
Zn1      0.94780    0.94780    0.44780   1.00
O2       0.93850    0.89150    0.32680   1.00
O2       0.93850    0.82680    0.39150   1.00
O2       1.00320    0.89150    0.39150   1.00
O2       0.89150    0.93850    0.32680   1.00
O2       0.82680    0.93850    0.39150   1.00
O2       0.89150    1.00320    0.39150   1.00
O2       0.89150    0.82680    0.43850   1.00
O2       0.82680    0.89150    0.43850   1.00
O2       0.89150    0.89150    0.50320   1.00
O2       1.00320    0.93850    0.43850   1.00
O2       0.93850    1.00320    0.43850   1.00
O2       0.93850    0.93850    0.50320   1.00
C1       0.91500    0.91500    0.30980   1.00
C1       0.91500    0.80980    0.41500   1.00
C1       1.02020    0.91500    0.41500   1.00
C1       0.80980    0.91500    0.41500   1.00
C1       0.91500    1.02020    0.41500   1.00
C1       0.91500    0.91500    0.52020   1.00
O1       0.91500    0.41500    0.91500   1.00
Zn1      0.94780    0.38220    0.88220   1.00
Zn1      0.88220    0.44780    0.88220   1.00
Zn1      0.88220    0.38220    0.94780   1.00
Zn1      0.94780    0.44780    0.94780   1.00
O2       0.93850    0.39150    0.82680   1.00
O2       0.93850    0.32680    0.89150   1.00
O2       1.00320    0.39150    0.89150   1.00
O2       0.89150    0.43850    0.82680   1.00
O2       0.82680    0.43850    0.89150   1.00
O2       0.89150    0.50320    0.89150   1.00
O2       0.89150    0.32680    0.93850   1.00
O2       0.82680    0.39150    0.93850   1.00
O2       0.89150    0.39150    1.00320   1.00
O2       1.00320    0.43850    0.93850   1.00
O2       0.93850    0.50320    0.93850   1.00
O2       0.93850    0.43850    1.00320   1.00
C1       0.91500    0.41500    0.80980   1.00
C1       0.91500    0.30980    0.91500   1.00
C1       1.02020    0.41500    0.91500   1.00
C1       0.80980    0.41500    0.91500   1.00
C1       0.91500    0.52020    0.91500   1.00
C1       0.91500    0.41500    1.02020   1.00
O1       0.41500    0.91500    0.91500   1.00
Zn1      0.44780    0.88220    0.88220   1.00
Zn1      0.38220    0.94780    0.88220   1.00
Zn1      0.38220    0.88220    0.94780   1.00
Zn1      0.44780    0.94780    0.94780   1.00
O2       0.43850    0.89150    0.82680   1.00
O2       0.43850    0.82680    0.89150   1.00
O2       0.50320    0.89150    0.89150   1.00
O2       0.39150    0.93850    0.82680   1.00
O2       0.32680    0.93850    0.89150   1.00
O2       0.39150    1.00320    0.89150   1.00
O2       0.39150    0.82680    0.93850   1.00
O2       0.32680    0.89150    0.93850   1.00
O2       0.39150    0.89150    1.00320   1.00
O2       0.50320    0.93850    0.93850   1.00
O2       0.43850    1.00320    0.93850   1.00
O2       0.43850    0.93850    1.00320   1.00
C1       0.41500    0.91500    0.80980   1.00
C1       0.41500    0.80980    0.91500   1.00
C1       0.52020    0.91500    0.91500   1.00
C1       0.30980    0.91500    0.91500   1.00
C1       0.41500    1.02020    0.91500   1.00
C1       0.41500    0.91500    1.02020   1.00
C2       0.75287    0.74917    0.89757   1.00
C3a      0.77707    0.72400    0.91884   1.00
H1       0.79665    0.70430    0.90369   1.00
C3a      0.72753    0.77467    0.91704   1.00
H1       0.70884    0.79412    0.90051   1.00
C3b      0.77621    0.72405    0.95938   1.00
C5       0.80261    0.69661    0.98144   1.00
H2       0.78498    0.67666    0.99984   1.00
H2       0.82073    0.67850    0.96161   1.00
H2       0.82256    0.71342    1.00060   1.00
C3b      0.72612    0.77528    0.95756   1.00
C5       0.69853    0.80306    0.97767   1.00
H2       0.71511    0.82331    0.99670   1.00
H2       0.68157    0.82084    0.95655   1.00
H2       0.67754    0.78655    0.99594   1.00
C4       0.75060    0.74983    0.97873   1.00
C4       0.74940    0.75017    1.02127   1.00
C3b      0.72322    0.72528    1.04101   1.00
C5       0.69621    0.69809    1.01937   1.00
H2       0.71338    0.67747    1.00129   1.00
H2       0.67770    0.68071    1.03949   1.00
H2       0.67664    0.71505    0.99995   1.00
C3b      0.77445    0.77539    1.04204   1.00
C5       0.80265    0.80224    1.02152   1.00
H2       0.78652    0.82256    1.00217   1.00
H2       0.82001    0.81995    1.04235   1.00
H2       0.82326    0.78498    1.00350   1.00
C3a      0.72237    0.72588    1.08155   1.00
H1       0.70235    0.70686    1.09700   1.00
C3a      0.77303    0.77545    1.08257   1.00
H1       0.79215    0.79472    1.09881   1.00
C2       0.74713    0.75083    1.10243   1.00
C2       0.74917    0.89757    0.75287   1.00
C3a      0.72400    0.91884    0.77707   1.00
H1       0.70430    0.90369    0.79665   1.00
C3a      0.77467    0.91704    0.72753   1.00
H1       0.79412    0.90051    0.70884   1.00
C3b      0.72405    0.95938    0.77621   1.00
C5       0.69661    0.98144    0.80261   1.00
H2       0.67666    0.99984    0.78498   1.00
H2       0.67850    0.96161    0.82073   1.00
H2       0.71342    1.00060    0.82256   1.00
C3b      0.77528    0.95756    0.72612   1.00
C5       0.80306    0.97767    0.69853   1.00
H2       0.82331    0.99670    0.71511   1.00
H2       0.82084    0.95655    0.68157   1.00
H2       0.78655    0.99594    0.67754   1.00
C4       0.74983    0.97873    0.75060   1.00
C4       0.75017    1.02127    0.74940   1.00
C3b      0.72528    1.04101    0.72322   1.00
C5       0.69809    1.01937    0.69621   1.00
H2       0.67747    1.00129    0.71338   1.00
H2       0.68071    1.03949    0.67770   1.00
H2       0.71505    0.99995    0.67664   1.00
C3b      0.77539    1.04204    0.77445   1.00
C5       0.80224    1.02152    0.80265   1.00
H2       0.82256    1.00217    0.78652   1.00
H2       0.81995    1.04235    0.82001   1.00
H2       0.78498    1.00350    0.82326   1.00
C3a      0.72588    1.08155    0.72237   1.00
H1       0.70686    1.09700    0.70235   1.00
C3a      0.77545    1.08257    0.77303   1.00
H1       0.79472    1.09881    0.79215   1.00
C2       0.75083    1.10243    0.74713   1.00
C2       0.60243    0.75287    0.75083   1.00
C3a      0.58116    0.77707    0.77600   1.00
H1       0.59631    0.79665    0.79570   1.00
C3a      0.58296    0.72753    0.72533   1.00
H1       0.59949    0.70884    0.70588   1.00
C3b      0.54062    0.77621    0.77595   1.00
C5       0.51856    0.80261    0.80339   1.00
H2       0.50016    0.78498    0.82334   1.00
H2       0.53839    0.82073    0.82150   1.00
H2       0.49940    0.82256    0.78658   1.00
C3b      0.54244    0.72612    0.72472   1.00
C5       0.52233    0.69853    0.69694   1.00
H2       0.50330    0.71511    0.67669   1.00
H2       0.54345    0.68157    0.67916   1.00
H2       0.50406    0.67754    0.71345   1.00
C4       0.52127    0.75060    0.75017   1.00
C4       0.47873    0.74940    0.74983   1.00
C3b      0.45899    0.72322    0.77472   1.00
C5       0.48063    0.69621    0.80191   1.00
H2       0.49871    0.71338    0.82253   1.00
H2       0.46051    0.67770    0.81929   1.00
H2       0.50005    0.67664    0.78495   1.00
C3b      0.45796    0.77445    0.72461   1.00
C5       0.47848    0.80265    0.69776   1.00
H2       0.49783    0.78652    0.67744   1.00
H2       0.45765    0.82001    0.68005   1.00
H2       0.49650    0.82326    0.71502   1.00
C3a      0.41845    0.72237    0.77412   1.00
H1       0.40300    0.70235    0.79314   1.00
C3a      0.41743    0.77303    0.72455   1.00
H1       0.40119    0.79215    0.70528   1.00
C2       0.39757    0.74713    0.74917   1.00
C2       0.89757    0.75287    0.74917   1.00
C3a      0.91884    0.77707    0.72400   1.00
H1       0.90369    0.79665    0.70430   1.00
C3a      0.91704    0.72753    0.77467   1.00
H1       0.90051    0.70884    0.79412   1.00
C3b      0.95938    0.77621    0.72405   1.00
C5       0.98144    0.80261    0.69661   1.00
H2       0.99984    0.78498    0.67666   1.00
H2       0.96161    0.82073    0.67850   1.00
H2       1.00060    0.82256    0.71342   1.00
C3b      0.95756    0.72612    0.77528   1.00
C5       0.97767    0.69853    0.80306   1.00
H2       0.99670    0.71511    0.82331   1.00
H2       0.95655    0.68157    0.82084   1.00
H2       0.99594    0.67754    0.78655   1.00
C4       0.97873    0.75060    0.74983   1.00
C4       1.02127    0.74940    0.75017   1.00
C3b      1.04101    0.72322    0.72528   1.00
C5       1.01937    0.69621    0.69809   1.00
H2       1.00129    0.71338    0.67747   1.00
H2       1.03949    0.67770    0.68071   1.00
H2       0.99995    0.67664    0.71505   1.00
C3b      1.04204    0.77445    0.77539   1.00
C5       1.02152    0.80265    0.80224   1.00
H2       1.00217    0.78652    0.82256   1.00
H2       1.04235    0.82001    0.81995   1.00
H2       1.00350    0.82326    0.78498   1.00
C3a      1.08155    0.72237    0.72588   1.00
H1       1.09700    0.70235    0.70686   1.00
C3a      1.08257    0.77303    0.77545   1.00
H1       1.09881    0.79215    0.79472   1.00
C2       1.10243    0.74713    0.75083   1.00
C2       0.75083    0.60243    0.75287   1.00
C3a      0.77600    0.58116    0.77707   1.00
H1       0.79570    0.59631    0.79665   1.00
C3a      0.72533    0.58296    0.72753   1.00
H1       0.70588    0.59949    0.70884   1.00
C3b      0.77595    0.54062    0.77621   1.00
C5       0.80339    0.51856    0.80261   1.00
H2       0.82334    0.50016    0.78498   1.00
H2       0.82150    0.53839    0.82073   1.00
H2       0.78658    0.49940    0.82256   1.00
C3b      0.72472    0.54244    0.72612   1.00
C5       0.69694    0.52233    0.69853   1.00
H2       0.67669    0.50330    0.71511   1.00
H2       0.67916    0.54345    0.68157   1.00
H2       0.71345    0.50406    0.67754   1.00
C4       0.75017    0.52127    0.75060   1.00
C4       0.74983    0.47873    0.74940   1.00
C3b      0.77472    0.45899    0.72322   1.00
C5       0.80191    0.48063    0.69621   1.00
H2       0.82253    0.49871    0.71338   1.00
H2       0.81929    0.46051    0.67770   1.00
H2       0.78495    0.50005    0.67664   1.00
C3b      0.72461    0.45796    0.77445   1.00
C5       0.69776    0.47848    0.80265   1.00
H2       0.67744    0.49783    0.78652   1.00
H2       0.68005    0.45765    0.82001   1.00
H2       0.71502    0.49650    0.82326   1.00
C3a      0.77412    0.41845    0.72237   1.00
H1       0.79314    0.40300    0.70235   1.00
C3a      0.72455    0.41743    0.77303   1.00
H1       0.70528    0.40119    0.79215   1.00
C2       0.74917    0.39757    0.74713   1.00
C2       0.75287    0.75083    0.60243   1.00
C3a      0.77707    0.77600    0.58116   1.00
H1       0.79665    0.79570    0.59631   1.00
C3a      0.72753    0.72533    0.58296   1.00
H1       0.70884    0.70588    0.59949   1.00
C3b      0.77621    0.77595    0.54062   1.00
C5       0.80261    0.80339    0.51856   1.00
H2       0.78498    0.82334    0.50016   1.00
H2       0.82073    0.82150    0.53839   1.00
H2       0.82256    0.78658    0.49940   1.00
C3b      0.72612    0.72472    0.54244   1.00
C5       0.69853    0.69694    0.52233   1.00
H2       0.71511    0.67669    0.50330   1.00
H2       0.68157    0.67916    0.54345   1.00
H2       0.67754    0.71345    0.50406   1.00
C4       0.75060    0.75017    0.52127   1.00
C4       0.74940    0.74983    0.47873   1.00
C3b      0.72322    0.77472    0.45899   1.00
C5       0.69621    0.80191    0.48063   1.00
H2       0.71338    0.82253    0.49871   1.00
H2       0.67770    0.81929    0.46051   1.00
H2       0.67664    0.78495    0.50005   1.00
C3b      0.77445    0.72461    0.45796   1.00
C5       0.80265    0.69776    0.47848   1.00
H2       0.78652    0.67744    0.49783   1.00
H2       0.82001    0.68005    0.45765   1.00
H2       0.82326    0.71502    0.49650   1.00
C3a      0.72237    0.77412    0.41845   1.00
H1       0.70235    0.79314    0.40300   1.00
C3a      0.77303    0.72455    0.41743   1.00
H1       0.79215    0.70528    0.40119   1.00
C2       0.74713    0.74917    0.39757   1.00
C2       0.25287    0.24917    0.89757   1.00
C3a      0.27707    0.22400    0.91884   1.00
H1       0.29665    0.20430    0.90369   1.00
C3a      0.22753    0.27467    0.91704   1.00
H1       0.20884    0.29412    0.90051   1.00
C3b      0.27621    0.22405    0.95938   1.00
C5       0.30261    0.19661    0.98144   1.00
H2       0.28498    0.17666    0.99984   1.00
H2       0.32073    0.17850    0.96161   1.00
H2       0.32256    0.21342    1.00060   1.00
C3b      0.22612    0.27528    0.95756   1.00
C5       0.19853    0.30306    0.97767   1.00
H2       0.21511    0.32331    0.99670   1.00
H2       0.18157    0.32084    0.95655   1.00
H2       0.17754    0.28655    0.99594   1.00
C4       0.25060    0.24983    0.97873   1.00
C4       0.24940    0.25017    1.02127   1.00
C3b      0.22322    0.22528    1.04101   1.00
C5       0.19621    0.19809    1.01937   1.00
H2       0.21338    0.17747    1.00129   1.00
H2       0.17770    0.18071    1.03949   1.00
H2       0.17664    0.21505    0.99995   1.00
C3b      0.27445    0.27539    1.04204   1.00
C5       0.30265    0.30224    1.02152   1.00
H2       0.28652    0.32256    1.00217   1.00
H2       0.32001    0.31995    1.04235   1.00
H2       0.32326    0.28498    1.00350   1.00
C3a      0.22237    0.22588    1.08155   1.00
H1       0.20235    0.20686    1.09700   1.00
C3a      0.27303    0.27545    1.08257   1.00
H1       0.29215    0.29472    1.09881   1.00
C2       0.24713    0.25083    1.10243   1.00
C2       0.24917    0.39757    0.75287   1.00
C3a      0.22400    0.41884    0.77707   1.00
H1       0.20430    0.40369    0.79665   1.00
C3a      0.27467    0.41704    0.72753   1.00
H1       0.29412    0.40051    0.70884   1.00
C3b      0.22405    0.45938    0.77621   1.00
C5       0.19661    0.48144    0.80261   1.00
H2       0.17666    0.49984    0.78498   1.00
H2       0.17850    0.46161    0.82073   1.00
H2       0.21342    0.50060    0.82256   1.00
C3b      0.27528    0.45756    0.72612   1.00
C5       0.30306    0.47767    0.69853   1.00
H2       0.32331    0.49670    0.71511   1.00
H2       0.32084    0.45655    0.68157   1.00
H2       0.28655    0.49594    0.67754   1.00
C4       0.24983    0.47873    0.75060   1.00
C4       0.25017    0.52127    0.74940   1.00
C3b      0.22528    0.54101    0.72322   1.00
C5       0.19809    0.51937    0.69621   1.00
H2       0.17747    0.50129    0.71338   1.00
H2       0.18071    0.53949    0.67770   1.00
H2       0.21505    0.49995    0.67664   1.00
C3b      0.27539    0.54204    0.77445   1.00
C5       0.30224    0.52152    0.80265   1.00
H2       0.32256    0.50217    0.78652   1.00
H2       0.31995    0.54235    0.82001   1.00
H2       0.28498    0.50350    0.82326   1.00
C3a      0.22588    0.58155    0.72237   1.00
H1       0.20686    0.59700    0.70235   1.00
C3a      0.27545    0.58257    0.77303   1.00
H1       0.29472    0.59881    0.79215   1.00
C2       0.25083    0.60243    0.74713   1.00
C2       0.10243    0.25287    0.75083   1.00
C3a      0.08116    0.27707    0.77600   1.00
H1       0.09631    0.29665    0.79570   1.00
C3a      0.08296    0.22753    0.72533   1.00
H1       0.09949    0.20884    0.70588   1.00
C3b      0.04062    0.27621    0.77595   1.00
C5       0.01856    0.30261    0.80339   1.00
H2       0.00016    0.28498    0.82334   1.00
H2       0.03839    0.32073    0.82150   1.00
H2       -0.00060   0.32256    0.78658   1.00
C3b      0.04244    0.22612    0.72472   1.00
C5       0.02233    0.19853    0.69694   1.00
H2       0.00330    0.21511    0.67669   1.00
H2       0.04345    0.18157    0.67916   1.00
H2       0.00406    0.17754    0.71345   1.00
C4       0.02127    0.25060    0.75017   1.00
C4       -0.02127   0.24940    0.74983   1.00
C3b      -0.04101   0.22322    0.77472   1.00
C5       -0.01937   0.19621    0.80191   1.00
H2       -0.00129   0.21338    0.82253   1.00
H2       -0.03949   0.17770    0.81929   1.00
H2       0.00005    0.17664    0.78495   1.00
C3b      -0.04204   0.27445    0.72461   1.00
C5       -0.02152   0.30265    0.69776   1.00
H2       -0.00217   0.28652    0.67744   1.00
H2       -0.04235   0.32001    0.68005   1.00
H2       -0.00350   0.32326    0.71502   1.00
C3a      -0.08155   0.22237    0.77412   1.00
H1       -0.09700   0.20235    0.79314   1.00
C3a      -0.08257   0.27303    0.72455   1.00
H1       -0.09881   0.29215    0.70528   1.00
C2       -0.10243   0.24713    0.74917   1.00
C2       0.39757    0.25287    0.74917   1.00
C3a      0.41884    0.27707    0.72400   1.00
H1       0.40369    0.29665    0.70430   1.00
C3a      0.41704    0.22753    0.77467   1.00
H1       0.40051    0.20884    0.79412   1.00
C3b      0.45938    0.27621    0.72405   1.00
C5       0.48144    0.30261    0.69661   1.00
H2       0.49984    0.28498    0.67666   1.00
H2       0.46161    0.32073    0.67850   1.00
H2       0.50060    0.32256    0.71342   1.00
C3b      0.45756    0.22612    0.77528   1.00
C5       0.47767    0.19853    0.80306   1.00
H2       0.49670    0.21511    0.82331   1.00
H2       0.45655    0.18157    0.82084   1.00
H2       0.49594    0.17754    0.78655   1.00
C4       0.47873    0.25060    0.74983   1.00
C4       0.52127    0.24940    0.75017   1.00
C3b      0.54101    0.22322    0.72528   1.00
C5       0.51937    0.19621    0.69809   1.00
H2       0.50129    0.21338    0.67747   1.00
H2       0.53949    0.17770    0.68071   1.00
H2       0.49995    0.17664    0.71505   1.00
C3b      0.54204    0.27445    0.77539   1.00
C5       0.52152    0.30265    0.80224   1.00
H2       0.50217    0.28652    0.82256   1.00
H2       0.54235    0.32001    0.81995   1.00
H2       0.50350    0.32326    0.78498   1.00
C3a      0.58155    0.22237    0.72588   1.00
H1       0.59700    0.20235    0.70686   1.00
C3a      0.58257    0.27303    0.77545   1.00
H1       0.59881    0.29215    0.79472   1.00
C2       0.60243    0.24713    0.75083   1.00
C2       0.25083    0.10243    0.75287   1.00
C3a      0.27600    0.08116    0.77707   1.00
H1       0.29570    0.09631    0.79665   1.00
C3a      0.22533    0.08296    0.72753   1.00
H1       0.20588    0.09949    0.70884   1.00
C3b      0.27595    0.04062    0.77621   1.00
C5       0.30339    0.01856    0.80261   1.00
H2       0.32334    0.00016    0.78498   1.00
H2       0.32150    0.03839    0.82073   1.00
H2       0.28658    -0.00060   0.82256   1.00
C3b      0.22472    0.04244    0.72612   1.00
C5       0.19694    0.02233    0.69853   1.00
H2       0.17669    0.00330    0.71511   1.00
H2       0.17916    0.04345    0.68157   1.00
H2       0.21345    0.00406    0.67754   1.00
C4       0.25017    0.02127    0.75060   1.00
C4       0.24983    -0.02127   0.74940   1.00
C3b      0.27472    -0.04101   0.72322   1.00
C5       0.30191    -0.01937   0.69621   1.00
H2       0.32253    -0.00129   0.71338   1.00
H2       0.31929    -0.03949   0.67770   1.00
H2       0.28495    0.00005    0.67664   1.00
C3b      0.22461    -0.04204   0.77445   1.00
C5       0.19776    -0.02152   0.80265   1.00
H2       0.17744    -0.00217   0.78652   1.00
H2       0.18005    -0.04235   0.82001   1.00
H2       0.21502    -0.00350   0.82326   1.00
C3a      0.27412    -0.08155   0.72237   1.00
H1       0.29314    -0.09700   0.70235   1.00
C3a      0.22455    -0.08257   0.77303   1.00
H1       0.20528    -0.09881   0.79215   1.00
C2       0.24917    -0.10243   0.74713   1.00
C2       0.25287    0.25083    0.60243   1.00
C3a      0.27707    0.27600    0.58116   1.00
H1       0.29665    0.29570    0.59631   1.00
C3a      0.22753    0.22533    0.58296   1.00
H1       0.20884    0.20588    0.59949   1.00
C3b      0.27621    0.27595    0.54062   1.00
C5       0.30261    0.30339    0.51856   1.00
H2       0.28498    0.32334    0.50016   1.00
H2       0.32073    0.32150    0.53839   1.00
H2       0.32256    0.28658    0.49940   1.00
C3b      0.22612    0.22472    0.54244   1.00
C5       0.19853    0.19694    0.52233   1.00
H2       0.21511    0.17669    0.50330   1.00
H2       0.18157    0.17916    0.54345   1.00
H2       0.17754    0.21345    0.50406   1.00
C4       0.25060    0.25017    0.52127   1.00
C4       0.24940    0.24983    0.47873   1.00
C3b      0.22322    0.27472    0.45899   1.00
C5       0.19621    0.30191    0.48063   1.00
H2       0.21338    0.32253    0.49871   1.00
H2       0.17770    0.31929    0.46051   1.00
H2       0.17664    0.28495    0.50005   1.00
C3b      0.27445    0.22461    0.45796   1.00
C5       0.30265    0.19776    0.47848   1.00
H2       0.28652    0.17744    0.49783   1.00
H2       0.32001    0.18005    0.45765   1.00
H2       0.32326    0.21502    0.49650   1.00
C3a      0.22237    0.27412    0.41845   1.00
H1       0.20235    0.29314    0.40300   1.00
C3a      0.27303    0.22455    0.41743   1.00
H1       0.29215    0.20528    0.40119   1.00
C2       0.24713    0.24917    0.39757   1.00
C2       0.25287    0.74917    0.39757   1.00
C3a      0.27707    0.72400    0.41884   1.00
H1       0.29665    0.70430    0.40369   1.00
C3a      0.22753    0.77467    0.41704   1.00
H1       0.20884    0.79412    0.40051   1.00
C3b      0.27621    0.72405    0.45938   1.00
C5       0.30261    0.69661    0.48144   1.00
H2       0.28498    0.67666    0.49984   1.00
H2       0.32073    0.67850    0.46161   1.00
H2       0.32256    0.71342    0.50060   1.00
C3b      0.22612    0.77528    0.45756   1.00
C5       0.19853    0.80306    0.47767   1.00
H2       0.21511    0.82331    0.49670   1.00
H2       0.18157    0.82084    0.45655   1.00
H2       0.17754    0.78655    0.49594   1.00
C4       0.25060    0.74983    0.47873   1.00
C4       0.24940    0.75017    0.52127   1.00
C3b      0.22322    0.72528    0.54101   1.00
C5       0.19621    0.69809    0.51937   1.00
H2       0.21338    0.67747    0.50129   1.00
H2       0.17770    0.68071    0.53949   1.00
H2       0.17664    0.71505    0.49995   1.00
C3b      0.27445    0.77539    0.54204   1.00
C5       0.30265    0.80224    0.52152   1.00
H2       0.28652    0.82256    0.50217   1.00
H2       0.32001    0.81995    0.54235   1.00
H2       0.32326    0.78498    0.50350   1.00
C3a      0.22237    0.72588    0.58155   1.00
H1       0.20235    0.70686    0.59700   1.00
C3a      0.27303    0.77545    0.58257   1.00
H1       0.29215    0.79472    0.59881   1.00
C2       0.24713    0.75083    0.60243   1.00
C2       0.24917    0.89757    0.25287   1.00
C3a      0.22400    0.91884    0.27707   1.00
H1       0.20430    0.90369    0.29665   1.00
C3a      0.27467    0.91704    0.22753   1.00
H1       0.29412    0.90051    0.20884   1.00
C3b      0.22405    0.95938    0.27621   1.00
C5       0.19661    0.98144    0.30261   1.00
H2       0.17666    0.99984    0.28498   1.00
H2       0.17850    0.96161    0.32073   1.00
H2       0.21342    1.00060    0.32256   1.00
C3b      0.27528    0.95756    0.22612   1.00
C5       0.30306    0.97767    0.19853   1.00
H2       0.32331    0.99670    0.21511   1.00
H2       0.32084    0.95655    0.18157   1.00
H2       0.28655    0.99594    0.17754   1.00
C4       0.24983    0.97873    0.25060   1.00
C4       0.25017    1.02127    0.24940   1.00
C3b      0.22528    1.04101    0.22322   1.00
C5       0.19809    1.01937    0.19621   1.00
H2       0.17747    1.00129    0.21338   1.00
H2       0.18071    1.03949    0.17770   1.00
H2       0.21505    0.99995    0.17664   1.00
C3b      0.27539    1.04204    0.27445   1.00
C5       0.30224    1.02152    0.30265   1.00
H2       0.32256    1.00217    0.28652   1.00
H2       0.31995    1.04235    0.32001   1.00
H2       0.28498    1.00350    0.32326   1.00
C3a      0.22588    1.08155    0.22237   1.00
H1       0.20686    1.09700    0.20235   1.00
C3a      0.27545    1.08257    0.27303   1.00
H1       0.29472    1.09881    0.29215   1.00
C2       0.25083    1.10243    0.24713   1.00
C2       0.10243    0.75287    0.25083   1.00
C3a      0.08116    0.77707    0.27600   1.00
H1       0.09631    0.79665    0.29570   1.00
C3a      0.08296    0.72753    0.22533   1.00
H1       0.09949    0.70884    0.20588   1.00
C3b      0.04062    0.77621    0.27595   1.00
C5       0.01856    0.80261    0.30339   1.00
H2       0.00016    0.78498    0.32334   1.00
H2       0.03839    0.82073    0.32150   1.00
H2       -0.00060   0.82256    0.28658   1.00
C3b      0.04244    0.72612    0.22472   1.00
C5       0.02233    0.69853    0.19694   1.00
H2       0.00330    0.71511    0.17669   1.00
H2       0.04345    0.68157    0.17916   1.00
H2       0.00406    0.67754    0.21345   1.00
C4       0.02127    0.75060    0.25017   1.00
C4       -0.02127   0.74940    0.24983   1.00
C3b      -0.04101   0.72322    0.27472   1.00
C5       -0.01937   0.69621    0.30191   1.00
H2       -0.00129   0.71338    0.32253   1.00
H2       -0.03949   0.67770    0.31929   1.00
H2       0.00005    0.67664    0.28495   1.00
C3b      -0.04204   0.77445    0.22461   1.00
C5       -0.02152   0.80265    0.19776   1.00
H2       -0.00217   0.78652    0.17744   1.00
H2       -0.04235   0.82001    0.18005   1.00
H2       -0.00350   0.82326    0.21502   1.00
C3a      -0.08155   0.72237    0.27412   1.00
H1       -0.09700   0.70235    0.29314   1.00
C3a      -0.08257   0.77303    0.22455   1.00
H1       -0.09881   0.79215    0.20528   1.00
C2       -0.10243   0.74713    0.24917   1.00
C2       0.39757    0.75287    0.24917   1.00
C3a      0.41884    0.77707    0.22400   1.00
H1       0.40369    0.79665    0.20430   1.00
C3a      0.41704    0.72753    0.27467   1.00
H1       0.40051    0.70884    0.29412   1.00
C3b      0.45938    0.77621    0.22405   1.00
C5       0.48144    0.80261    0.19661   1.00
H2       0.49984    0.78498    0.17666   1.00
H2       0.46161    0.82073    0.17850   1.00
H2       0.50060    0.82256    0.21342   1.00
C3b      0.45756    0.72612    0.27528   1.00
C5       0.47767    0.69853    0.30306   1.00
H2       0.49670    0.71511    0.32331   1.00
H2       0.45655    0.68157    0.32084   1.00
H2       0.49594    0.67754    0.28655   1.00
C4       0.47873    0.75060    0.24983   1.00
C4       0.52127    0.74940    0.25017   1.00
C3b      0.54101    0.72322    0.22528   1.00
C5       0.51937    0.69621    0.19809   1.00
H2       0.50129    0.71338    0.17747   1.00
H2       0.53949    0.67770    0.18071   1.00
H2       0.49995    0.67664    0.21505   1.00
C3b      0.54204    0.77445    0.27539   1.00
C5       0.52152    0.80265    0.30224   1.00
H2       0.50217    0.78652    0.32256   1.00
H2       0.54235    0.82001    0.31995   1.00
H2       0.50350    0.82326    0.28498   1.00
C3a      0.58155    0.72237    0.22588   1.00
H1       0.59700    0.70235    0.20686   1.00
C3a      0.58257    0.77303    0.27545   1.00
H1       0.59881    0.79215    0.29472   1.00
C2       0.60243    0.74713    0.25083   1.00
C2       0.25083    0.60243    0.25287   1.00
C3a      0.27600    0.58116    0.27707   1.00
H1       0.29570    0.59631    0.29665   1.00
C3a      0.22533    0.58296    0.22753   1.00
H1       0.20588    0.59949    0.20884   1.00
C3b      0.27595    0.54062    0.27621   1.00
C5       0.30339    0.51856    0.30261   1.00
H2       0.32334    0.50016    0.28498   1.00
H2       0.32150    0.53839    0.32073   1.00
H2       0.28658    0.49940    0.32256   1.00
C3b      0.22472    0.54244    0.22612   1.00
C5       0.19694    0.52233    0.19853   1.00
H2       0.17669    0.50330    0.21511   1.00
H2       0.17916    0.54345    0.18157   1.00
H2       0.21345    0.50406    0.17754   1.00
C4       0.25017    0.52127    0.25060   1.00
C4       0.24983    0.47873    0.24940   1.00
C3b      0.27472    0.45899    0.22322   1.00
C5       0.30191    0.48063    0.19621   1.00
H2       0.32253    0.49871    0.21338   1.00
H2       0.31929    0.46051    0.17770   1.00
H2       0.28495    0.50005    0.17664   1.00
C3b      0.22461    0.45796    0.27445   1.00
C5       0.19776    0.47848    0.30265   1.00
H2       0.17744    0.49783    0.28652   1.00
H2       0.18005    0.45765    0.32001   1.00
H2       0.21502    0.49650    0.32326   1.00
C3a      0.27412    0.41845    0.22237   1.00
H1       0.29314    0.40300    0.20235   1.00
C3a      0.22455    0.41743    0.27303   1.00
H1       0.20528    0.40119    0.29215   1.00
C2       0.24917    0.39757    0.24713   1.00
C2       0.25287    0.75083    0.10243   1.00
C3a      0.27707    0.77600    0.08116   1.00
H1       0.29665    0.79570    0.09631   1.00
C3a      0.22753    0.72533    0.08296   1.00
H1       0.20884    0.70588    0.09949   1.00
C3b      0.27621    0.77595    0.04062   1.00
C5       0.30261    0.80339    0.01856   1.00
H2       0.28498    0.82334    0.00016   1.00
H2       0.32073    0.82150    0.03839   1.00
H2       0.32256    0.78658    -0.00060   1.00
C3b      0.22612    0.72472    0.04244   1.00
C5       0.19853    0.69694    0.02233   1.00
H2       0.21511    0.67669    0.00330   1.00
H2       0.18157    0.67916    0.04345   1.00
H2       0.17754    0.71345    0.00406   1.00
C4       0.25060    0.75017    0.02127   1.00
C4       0.24940    0.74983    -0.02127   1.00
C3b      0.22322    0.77472    -0.04101   1.00
C5       0.19621    0.80191    -0.01937   1.00
H2       0.21338    0.82253    -0.00129   1.00
H2       0.17770    0.81929    -0.03949   1.00
H2       0.17664    0.78495    0.00005   1.00
C3b      0.27445    0.72461    -0.04204   1.00
C5       0.30265    0.69776    -0.02152   1.00
H2       0.28652    0.67744    -0.00217   1.00
H2       0.32001    0.68005    -0.04235   1.00
H2       0.32326    0.71502    -0.00350   1.00
C3a      0.22237    0.77412    -0.08155   1.00
H1       0.20235    0.79314    -0.09700   1.00
C3a      0.27303    0.72455    -0.08257   1.00
H1       0.29215    0.70528    -0.09881   1.00
C2       0.24713    0.74917    -0.10243   1.00
C2       0.75287    0.24917    0.39757   1.00
C3a      0.77707    0.22400    0.41884   1.00
H1       0.79665    0.20430    0.40369   1.00
C3a      0.72753    0.27467    0.41704   1.00
H1       0.70884    0.29412    0.40051   1.00
C3b      0.77621    0.22405    0.45938   1.00
C5       0.80261    0.19661    0.48144   1.00
H2       0.78498    0.17666    0.49984   1.00
H2       0.82073    0.17850    0.46161   1.00
H2       0.82256    0.21342    0.50060   1.00
C3b      0.72612    0.27528    0.45756   1.00
C5       0.69853    0.30306    0.47767   1.00
H2       0.71511    0.32331    0.49670   1.00
H2       0.68157    0.32084    0.45655   1.00
H2       0.67754    0.28655    0.49594   1.00
C4       0.75060    0.24983    0.47873   1.00
C4       0.74940    0.25017    0.52127   1.00
C3b      0.72322    0.22528    0.54101   1.00
C5       0.69621    0.19809    0.51937   1.00
H2       0.71338    0.17747    0.50129   1.00
H2       0.67770    0.18071    0.53949   1.00
H2       0.67664    0.21505    0.49995   1.00
C3b      0.77445    0.27539    0.54204   1.00
C5       0.80265    0.30224    0.52152   1.00
H2       0.78652    0.32256    0.50217   1.00
H2       0.82001    0.31995    0.54235   1.00
H2       0.82326    0.28498    0.50350   1.00
C3a      0.72237    0.22588    0.58155   1.00
H1       0.70235    0.20686    0.59700   1.00
C3a      0.77303    0.27545    0.58257   1.00
H1       0.79215    0.29472    0.59881   1.00
C2       0.74713    0.25083    0.60243   1.00
C2       0.74917    0.39757    0.25287   1.00
C3a      0.72400    0.41884    0.27707   1.00
H1       0.70430    0.40369    0.29665   1.00
C3a      0.77467    0.41704    0.22753   1.00
H1       0.79412    0.40051    0.20884   1.00
C3b      0.72405    0.45938    0.27621   1.00
C5       0.69661    0.48144    0.30261   1.00
H2       0.67666    0.49984    0.28498   1.00
H2       0.67850    0.46161    0.32073   1.00
H2       0.71342    0.50060    0.32256   1.00
C3b      0.77528    0.45756    0.22612   1.00
C5       0.80306    0.47767    0.19853   1.00
H2       0.82331    0.49670    0.21511   1.00
H2       0.82084    0.45655    0.18157   1.00
H2       0.78655    0.49594    0.17754   1.00
C4       0.74983    0.47873    0.25060   1.00
C4       0.75017    0.52127    0.24940   1.00
C3b      0.72528    0.54101    0.22322   1.00
C5       0.69809    0.51937    0.19621   1.00
H2       0.67747    0.50129    0.21338   1.00
H2       0.68071    0.53949    0.17770   1.00
H2       0.71505    0.49995    0.17664   1.00
C3b      0.77539    0.54204    0.27445   1.00
C5       0.80224    0.52152    0.30265   1.00
H2       0.82256    0.50217    0.28652   1.00
H2       0.81995    0.54235    0.32001   1.00
H2       0.78498    0.50350    0.32326   1.00
C3a      0.72588    0.58155    0.22237   1.00
H1       0.70686    0.59700    0.20235   1.00
C3a      0.77545    0.58257    0.27303   1.00
H1       0.79472    0.59881    0.29215   1.00
C2       0.75083    0.60243    0.24713   1.00
C2       0.60243    0.25287    0.25083   1.00
C3a      0.58116    0.27707    0.27600   1.00
H1       0.59631    0.29665    0.29570   1.00
C3a      0.58296    0.22753    0.22533   1.00
H1       0.59949    0.20884    0.20588   1.00
C3b      0.54062    0.27621    0.27595   1.00
C5       0.51856    0.30261    0.30339   1.00
H2       0.50016    0.28498    0.32334   1.00
H2       0.53839    0.32073    0.32150   1.00
H2       0.49940    0.32256    0.28658   1.00
C3b      0.54244    0.22612    0.22472   1.00
C5       0.52233    0.19853    0.19694   1.00
H2       0.50330    0.21511    0.17669   1.00
H2       0.54345    0.18157    0.17916   1.00
H2       0.50406    0.17754    0.21345   1.00
C4       0.52127    0.25060    0.25017   1.00
C4       0.47873    0.24940    0.24983   1.00
C3b      0.45899    0.22322    0.27472   1.00
C5       0.48063    0.19621    0.30191   1.00
H2       0.49871    0.21338    0.32253   1.00
H2       0.46051    0.17770    0.31929   1.00
H2       0.50005    0.17664    0.28495   1.00
C3b      0.45796    0.27445    0.22461   1.00
C5       0.47848    0.30265    0.19776   1.00
H2       0.49783    0.28652    0.17744   1.00
H2       0.45765    0.32001    0.18005   1.00
H2       0.49650    0.32326    0.21502   1.00
C3a      0.41845    0.22237    0.27412   1.00
H1       0.40300    0.20235    0.29314   1.00
C3a      0.41743    0.27303    0.22455   1.00
H1       0.40119    0.29215    0.20528   1.00
C2       0.39757    0.24713    0.24917   1.00
C2       0.89757    0.25287    0.24917   1.00
C3a      0.91884    0.27707    0.22400   1.00
H1       0.90369    0.29665    0.20430   1.00
C3a      0.91704    0.22753    0.27467   1.00
H1       0.90051    0.20884    0.29412   1.00
C3b      0.95938    0.27621    0.22405   1.00
C5       0.98144    0.30261    0.19661   1.00
H2       0.99984    0.28498    0.17666   1.00
H2       0.96161    0.32073    0.17850   1.00
H2       1.00060    0.32256    0.21342   1.00
C3b      0.95756    0.22612    0.27528   1.00
C5       0.97767    0.19853    0.30306   1.00
H2       0.99670    0.21511    0.32331   1.00
H2       0.95655    0.18157    0.32084   1.00
H2       0.99594    0.17754    0.28655   1.00
C4       0.97873    0.25060    0.24983   1.00
C4       1.02127    0.24940    0.25017   1.00
C3b      1.04101    0.22322    0.22528   1.00
C5       1.01937    0.19621    0.19809   1.00
H2       1.00129    0.21338    0.17747   1.00
H2       1.03949    0.17770    0.18071   1.00
H2       0.99995    0.17664    0.21505   1.00
C3b      1.04204    0.27445    0.27539   1.00
C5       1.02152    0.30265    0.30224   1.00
H2       1.00217    0.28652    0.32256   1.00
H2       1.04235    0.32001    0.31995   1.00
H2       1.00350    0.32326    0.28498   1.00
C3a      1.08155    0.22237    0.22588   1.00
H1       1.09700    0.20235    0.20686   1.00
C3a      1.08257    0.27303    0.27545   1.00
H1       1.09881    0.29215    0.29472   1.00
C2       1.10243    0.24713    0.25083   1.00
C2       0.75083    0.10243    0.25287   1.00
C3a      0.77600    0.08116    0.27707   1.00
H1       0.79570    0.09631    0.29665   1.00
C3a      0.72533    0.08296    0.22753   1.00
H1       0.70588    0.09949    0.20884   1.00
C3b      0.77595    0.04062    0.27621   1.00
C5       0.80339    0.01856    0.30261   1.00
H2       0.82334    0.00016    0.28498   1.00
H2       0.82150    0.03839    0.32073   1.00
H2       0.78658    -0.00060   0.32256   1.00
C3b      0.72472    0.04244    0.22612   1.00
C5       0.69694    0.02233    0.19853   1.00
H2       0.67669    0.00330    0.21511   1.00
H2       0.67916    0.04345    0.18157   1.00
H2       0.71345    0.00406    0.17754   1.00
C4       0.75017    0.02127    0.25060   1.00
C4       0.74983    -0.02127   0.24940   1.00
C3b      0.77472    -0.04101   0.22322   1.00
C5       0.80191    -0.01937   0.19621   1.00
H2       0.82253    -0.00129   0.21338   1.00
H2       0.81929    -0.03949   0.17770   1.00
H2       0.78495    0.00005    0.17664   1.00
C3b      0.72461    -0.04204   0.27445   1.00
C5       0.69776    -0.02152   0.30265   1.00
H2       0.67744    -0.00217   0.28652   1.00
H2       0.68005    -0.04235   0.32001   1.00
H2       0.71502    -0.00350   0.32326   1.00
C3a      0.77412    -0.08155   0.22237   1.00
H1       0.79314    -0.09700   0.20235   1.00
C3a      0.72455    -0.08257   0.27303   1.00
H1       0.70528    -0.09881   0.29215   1.00
C2       0.74917    -0.10243   0.24713   1.00
C2       0.75287    0.25083    0.10243   1.00
C3a      0.77707    0.27600    0.08116   1.00
H1       0.79665    0.29570    0.09631   1.00
C3a      0.72753    0.22533    0.08296   1.00
H1       0.70884    0.20588    0.09949   1.00
C3b      0.77621    0.27595    0.04062   1.00
C5       0.80261    0.30339    0.01856   1.00
H2       0.78498    0.32334    0.00016   1.00
H2       0.82073    0.32150    0.03839   1.00
H2       0.82256    0.28658    -0.00060   1.00
C3b      0.72612    0.22472    0.04244   1.00
C5       0.69853    0.19694    0.02233   1.00
H2       0.71511    0.17669    0.00330   1.00
H2       0.68157    0.17916    0.04345   1.00
H2       0.67754    0.21345    0.00406   1.00
C4       0.75060    0.25017    0.02127   1.00
C4       0.74940    0.24983    -0.02127   1.00
C3b      0.72322    0.27472    -0.04101   1.00
C5       0.69621    0.30191    -0.01937   1.00
H2       0.71338    0.32253    -0.00129   1.00
H2       0.67770    0.31929    -0.03949   1.00
H2       0.67664    0.28495    0.00005   1.00
C3b      0.77445    0.22461    -0.04204   1.00
C5       0.80265    0.19776    -0.02152   1.00
H2       0.78652    0.17744    -0.00217   1.00
H2       0.82001    0.18005    -0.04235   1.00
H2       0.82326    0.21502    -0.00350   1.00
C3a      0.72237    0.27412    -0.08155   1.00
H1       0.70235    0.29314    -0.09700   1.00
C3a      0.77303    0.22455    -0.08257   1.00
H1       0.79215    0.20528    -0.09881   1.00
C2       0.74713    0.24917    -0.10243   1.00
C2       0.91787    0.91417    1.06257   1.00
C3a      0.94207    0.88900    1.08384   1.00
H1       0.96165    0.86930    1.06869   1.00
C3a      0.89253    0.93967    1.08204   1.00
H1       0.87384    0.95912    1.06551   1.00
C3b      0.94121    0.88905    1.12438   1.00
C5       0.96761    0.86161    1.14644   1.00
H2       0.94998    0.84166    1.16484   1.00
H2       0.98573    0.84350    1.12661   1.00
H2       0.98756    0.87842    1.16560   1.00
C3b      0.89112    0.94028    1.12256   1.00
C5       0.86353    0.96806    1.14267   1.00
H2       0.88011    0.98831    1.16170   1.00
H2       0.84657    0.98584    1.12155   1.00
H2       0.84254    0.95155    1.16094   1.00
C4       0.91560    0.91483    1.14373   1.00
C4       0.91440    0.91517    1.18627   1.00
C3b      0.88822    0.89028    1.20601   1.00
C5       0.86121    0.86309    1.18437   1.00
H2       0.87838    0.84247    1.16629   1.00
H2       0.84270    0.84571    1.20449   1.00
H2       0.84164    0.88005    1.16495   1.00
C3b      0.93945    0.94039    1.20704   1.00
C5       0.96765    0.96724    1.18652   1.00
H2       0.95152    0.98756    1.16717   1.00
H2       0.98501    0.98495    1.20735   1.00
H2       0.98826    0.94998    1.16850   1.00
C3a      0.88737    0.89088    1.24655   1.00
H1       0.86735    0.87186    1.26200   1.00
C3a      0.93803    0.94045    1.24757   1.00
H1       0.95715    0.95972    1.26381   1.00
C2       0.91213    0.91583    1.26743   1.00
C2       0.91417    1.06257    0.91787   1.00
C3a      0.88900    1.08384    0.94207   1.00
H1       0.86930    1.06869    0.96165   1.00
C3a      0.93967    1.08204    0.89253   1.00
H1       0.95912    1.06551    0.87384   1.00
C3b      0.88905    1.12438    0.94121   1.00
C5       0.86161    1.14644    0.96761   1.00
H2       0.84166    1.16484    0.94998   1.00
H2       0.84350    1.12661    0.98573   1.00
H2       0.87842    1.16560    0.98756   1.00
C3b      0.94028    1.12256    0.89112   1.00
C5       0.96806    1.14267    0.86353   1.00
H2       0.98831    1.16170    0.88011   1.00
H2       0.98584    1.12155    0.84657   1.00
H2       0.95155    1.16094    0.84254   1.00
C4       0.91483    1.14373    0.91560   1.00
C4       0.91517    1.18627    0.91440   1.00
C3b      0.89028    1.20601    0.88822   1.00
C5       0.86309    1.18437    0.86121   1.00
H2       0.84247    1.16629    0.87838   1.00
H2       0.84571    1.20449    0.84270   1.00
H2       0.88005    1.16495    0.84164   1.00
C3b      0.94039    1.20704    0.93945   1.00
C5       0.96724    1.18652    0.96765   1.00
H2       0.98756    1.16717    0.95152   1.00
H2       0.98495    1.20735    0.98501   1.00
H2       0.94998    1.16850    0.98826   1.00
C3a      0.89088    1.24655    0.88737   1.00
H1       0.87186    1.26200    0.86735   1.00
C3a      0.94045    1.24757    0.93803   1.00
H1       0.95972    1.26381    0.95715   1.00
C2       0.91583    1.26743    0.91213   1.00
C2       0.76743    0.91787    0.91583   1.00
C3a      0.74616    0.94207    0.94100   1.00
H1       0.76131    0.96165    0.96070   1.00
C3a      0.74796    0.89253    0.89033   1.00
H1       0.76449    0.87384    0.87088   1.00
C3b      0.70562    0.94121    0.94095   1.00
C5       0.68356    0.96761    0.96839   1.00
H2       0.66516    0.94998    0.98834   1.00
H2       0.70339    0.98573    0.98650   1.00
H2       0.66440    0.98756    0.95158   1.00
C3b      0.70744    0.89112    0.88972   1.00
C5       0.68733    0.86353    0.86194   1.00
H2       0.66830    0.88011    0.84169   1.00
H2       0.70845    0.84657    0.84416   1.00
H2       0.66906    0.84254    0.87845   1.00
C4       0.68627    0.91560    0.91517   1.00
C4       0.64373    0.91440    0.91483   1.00
C3b      0.62399    0.88822    0.93972   1.00
C5       0.64563    0.86121    0.96691   1.00
H2       0.66371    0.87838    0.98753   1.00
H2       0.62551    0.84270    0.98429   1.00
H2       0.66505    0.84164    0.94995   1.00
C3b      0.62296    0.93945    0.88961   1.00
C5       0.64348    0.96765    0.86276   1.00
H2       0.66283    0.95152    0.84244   1.00
H2       0.62265    0.98501    0.84505   1.00
H2       0.66150    0.98826    0.88002   1.00
C3a      0.58345    0.88737    0.93912   1.00
H1       0.56800    0.86735    0.95814   1.00
C3a      0.58243    0.93803    0.88955   1.00
H1       0.56619    0.95715    0.87028   1.00
C2       0.56257    0.91213    0.91417   1.00
C2       1.06257    0.91787    0.91417   1.00
C3a      1.08384    0.94207    0.88900   1.00
H1       1.06869    0.96165    0.86930   1.00
C3a      1.08204    0.89253    0.93967   1.00
H1       1.06551    0.87384    0.95912   1.00
C3b      1.12438    0.94121    0.88905   1.00
C5       1.14644    0.96761    0.86161   1.00
H2       1.16484    0.94998    0.84166   1.00
H2       1.12661    0.98573    0.84350   1.00
H2       1.16560    0.98756    0.87842   1.00
C3b      1.12256    0.89112    0.94028   1.00
C5       1.14267    0.86353    0.96806   1.00
H2       1.16170    0.88011    0.98831   1.00
H2       1.12155    0.84657    0.98584   1.00
H2       1.16094    0.84254    0.95155   1.00
C4       1.14373    0.91560    0.91483   1.00
C4       1.18627    0.91440    0.91517   1.00
C3b      1.20601    0.88822    0.89028   1.00
C5       1.18437    0.86121    0.86309   1.00
H2       1.16629    0.87838    0.84247   1.00
H2       1.20449    0.84270    0.84571   1.00
H2       1.16495    0.84164    0.88005   1.00
C3b      1.20704    0.93945    0.94039   1.00
C5       1.18652    0.96765    0.96724   1.00
H2       1.16717    0.95152    0.98756   1.00
H2       1.20735    0.98501    0.98495   1.00
H2       1.16850    0.98826    0.94998   1.00
C3a      1.24655    0.88737    0.89088   1.00
H1       1.26200    0.86735    0.87186   1.00
C3a      1.24757    0.93803    0.94045   1.00
H1       1.26381    0.95715    0.95972   1.00
C2       1.26743    0.91213    0.91583   1.00
C2       0.91583    0.76743    0.91787   1.00
C3a      0.94100    0.74616    0.94207   1.00
H1       0.96070    0.76131    0.96165   1.00
C3a      0.89033    0.74796    0.89253   1.00
H1       0.87088    0.76449    0.87384   1.00
C3b      0.94095    0.70562    0.94121   1.00
C5       0.96839    0.68356    0.96761   1.00
H2       0.98834    0.66516    0.94998   1.00
H2       0.98650    0.70339    0.98573   1.00
H2       0.95158    0.66440    0.98756   1.00
C3b      0.88972    0.70744    0.89112   1.00
C5       0.86194    0.68733    0.86353   1.00
H2       0.84169    0.66830    0.88011   1.00
H2       0.84416    0.70845    0.84657   1.00
H2       0.87845    0.66906    0.84254   1.00
C4       0.91517    0.68627    0.91560   1.00
C4       0.91483    0.64373    0.91440   1.00
C3b      0.93972    0.62399    0.88822   1.00
C5       0.96691    0.64563    0.86121   1.00
H2       0.98753    0.66371    0.87838   1.00
H2       0.98429    0.62551    0.84270   1.00
H2       0.94995    0.66505    0.84164   1.00
C3b      0.88961    0.62296    0.93945   1.00
C5       0.86276    0.64348    0.96765   1.00
H2       0.84244    0.66283    0.95152   1.00
H2       0.84505    0.62265    0.98501   1.00
H2       0.88002    0.66150    0.98826   1.00
C3a      0.93912    0.58345    0.88737   1.00
H1       0.95814    0.56800    0.86735   1.00
C3a      0.88955    0.58243    0.93803   1.00
H1       0.87028    0.56619    0.95715   1.00
C2       0.91417    0.56257    0.91213   1.00
C2       0.91787    0.91583    0.76743   1.00
C3a      0.94207    0.94100    0.74616   1.00
H1       0.96165    0.96070    0.76131   1.00
C3a      0.89253    0.89033    0.74796   1.00
H1       0.87384    0.87088    0.76449   1.00
C3b      0.94121    0.94095    0.70562   1.00
C5       0.96761    0.96839    0.68356   1.00
H2       0.94998    0.98834    0.66516   1.00
H2       0.98573    0.98650    0.70339   1.00
H2       0.98756    0.95158    0.66440   1.00
C3b      0.89112    0.88972    0.70744   1.00
C5       0.86353    0.86194    0.68733   1.00
H2       0.88011    0.84169    0.66830   1.00
H2       0.84657    0.84416    0.70845   1.00
H2       0.84254    0.87845    0.66906   1.00
C4       0.91560    0.91517    0.68627   1.00
C4       0.91440    0.91483    0.64373   1.00
C3b      0.88822    0.93972    0.62399   1.00
C5       0.86121    0.96691    0.64563   1.00
H2       0.87838    0.98753    0.66371   1.00
H2       0.84270    0.98429    0.62551   1.00
H2       0.84164    0.94995    0.66505   1.00
C3b      0.93945    0.88961    0.62296   1.00
C5       0.96765    0.86276    0.64348   1.00
H2       0.95152    0.84244    0.66283   1.00
H2       0.98501    0.84505    0.62265   1.00
H2       0.98826    0.88002    0.66150   1.00
C3a      0.88737    0.93912    0.58345   1.00
H1       0.86735    0.95814    0.56800   1.00
C3a      0.93803    0.88955    0.58243   1.00
H1       0.95715    0.87028    0.56619   1.00
C2       0.91213    0.91417    0.56257   1.00
C2       0.41787    0.41417    1.06257   1.00
C3a      0.44207    0.38900    1.08384   1.00
H1       0.46165    0.36930    1.06869   1.00
C3a      0.39253    0.43967    1.08204   1.00
H1       0.37384    0.45912    1.06551   1.00
C3b      0.44121    0.38905    1.12438   1.00
C5       0.46761    0.36161    1.14644   1.00
H2       0.44998    0.34166    1.16484   1.00
H2       0.48573    0.34350    1.12661   1.00
H2       0.48756    0.37842    1.16560   1.00
C3b      0.39112    0.44028    1.12256   1.00
C5       0.36353    0.46806    1.14267   1.00
H2       0.38011    0.48831    1.16170   1.00
H2       0.34657    0.48584    1.12155   1.00
H2       0.34254    0.45155    1.16094   1.00
C4       0.41560    0.41483    1.14373   1.00
C4       0.41440    0.41517    1.18627   1.00
C3b      0.38822    0.39028    1.20601   1.00
C5       0.36121    0.36309    1.18437   1.00
H2       0.37838    0.34247    1.16629   1.00
H2       0.34270    0.34571    1.20449   1.00
H2       0.34164    0.38005    1.16495   1.00
C3b      0.43945    0.44039    1.20704   1.00
C5       0.46765    0.46724    1.18652   1.00
H2       0.45152    0.48756    1.16717   1.00
H2       0.48501    0.48495    1.20735   1.00
H2       0.48826    0.44998    1.16850   1.00
C3a      0.38737    0.39088    1.24655   1.00
H1       0.36735    0.37186    1.26200   1.00
C3a      0.43803    0.44045    1.24757   1.00
H1       0.45715    0.45972    1.26381   1.00
C2       0.41213    0.41583    1.26743   1.00
C2       0.41417    0.56257    0.91787   1.00
C3a      0.38900    0.58384    0.94207   1.00
H1       0.36930    0.56869    0.96165   1.00
C3a      0.43967    0.58204    0.89253   1.00
H1       0.45912    0.56551    0.87384   1.00
C3b      0.38905    0.62438    0.94121   1.00
C5       0.36161    0.64644    0.96761   1.00
H2       0.34166    0.66484    0.94998   1.00
H2       0.34350    0.62661    0.98573   1.00
H2       0.37842    0.66560    0.98756   1.00
C3b      0.44028    0.62256    0.89112   1.00
C5       0.46806    0.64267    0.86353   1.00
H2       0.48831    0.66170    0.88011   1.00
H2       0.48584    0.62155    0.84657   1.00
H2       0.45155    0.66094    0.84254   1.00
C4       0.41483    0.64373    0.91560   1.00
C4       0.41517    0.68627    0.91440   1.00
C3b      0.39028    0.70601    0.88822   1.00
C5       0.36309    0.68437    0.86121   1.00
H2       0.34247    0.66629    0.87838   1.00
H2       0.34571    0.70449    0.84270   1.00
H2       0.38005    0.66495    0.84164   1.00
C3b      0.44039    0.70704    0.93945   1.00
C5       0.46724    0.68652    0.96765   1.00
H2       0.48756    0.66717    0.95152   1.00
H2       0.48495    0.70735    0.98501   1.00
H2       0.44998    0.66850    0.98826   1.00
C3a      0.39088    0.74655    0.88737   1.00
H1       0.37186    0.76200    0.86735   1.00
C3a      0.44045    0.74757    0.93803   1.00
H1       0.45972    0.76381    0.95715   1.00
C2       0.41583    0.76743    0.91213   1.00
C2       0.26743    0.41787    0.91583   1.00
C3a      0.24616    0.44207    0.94100   1.00
H1       0.26131    0.46165    0.96070   1.00
C3a      0.24796    0.39253    0.89033   1.00
H1       0.26449    0.37384    0.87088   1.00
C3b      0.20562    0.44121    0.94095   1.00
C5       0.18356    0.46761    0.96839   1.00
H2       0.16516    0.44998    0.98834   1.00
H2       0.20339    0.48573    0.98650   1.00
H2       0.16440    0.48756    0.95158   1.00
C3b      0.20744    0.39112    0.88972   1.00
C5       0.18733    0.36353    0.86194   1.00
H2       0.16830    0.38011    0.84169   1.00
H2       0.20845    0.34657    0.84416   1.00
H2       0.16906    0.34254    0.87845   1.00
C4       0.18627    0.41560    0.91517   1.00
C4       0.14373    0.41440    0.91483   1.00
C3b      0.12399    0.38822    0.93972   1.00
C5       0.14563    0.36121    0.96691   1.00
H2       0.16371    0.37838    0.98753   1.00
H2       0.12551    0.34270    0.98429   1.00
H2       0.16505    0.34164    0.94995   1.00
C3b      0.12296    0.43945    0.88961   1.00
C5       0.14348    0.46765    0.86276   1.00
H2       0.16283    0.45152    0.84244   1.00
H2       0.12265    0.48501    0.84505   1.00
H2       0.16150    0.48826    0.88002   1.00
C3a      0.08345    0.38737    0.93912   1.00
H1       0.06800    0.36735    0.95814   1.00
C3a      0.08243    0.43803    0.88955   1.00
H1       0.06619    0.45715    0.87028   1.00
C2       0.06257    0.41213    0.91417   1.00
C2       0.56257    0.41787    0.91417   1.00
C3a      0.58384    0.44207    0.88900   1.00
H1       0.56869    0.46165    0.86930   1.00
C3a      0.58204    0.39253    0.93967   1.00
H1       0.56551    0.37384    0.95912   1.00
C3b      0.62438    0.44121    0.88905   1.00
C5       0.64644    0.46761    0.86161   1.00
H2       0.66484    0.44998    0.84166   1.00
H2       0.62661    0.48573    0.84350   1.00
H2       0.66560    0.48756    0.87842   1.00
C3b      0.62256    0.39112    0.94028   1.00
C5       0.64267    0.36353    0.96806   1.00
H2       0.66170    0.38011    0.98831   1.00
H2       0.62155    0.34657    0.98584   1.00
H2       0.66094    0.34254    0.95155   1.00
C4       0.64373    0.41560    0.91483   1.00
C4       0.68627    0.41440    0.91517   1.00
C3b      0.70601    0.38822    0.89028   1.00
C5       0.68437    0.36121    0.86309   1.00
H2       0.66629    0.37838    0.84247   1.00
H2       0.70449    0.34270    0.84571   1.00
H2       0.66495    0.34164    0.88005   1.00
C3b      0.70704    0.43945    0.94039   1.00
C5       0.68652    0.46765    0.96724   1.00
H2       0.66717    0.45152    0.98756   1.00
H2       0.70735    0.48501    0.98495   1.00
H2       0.66850    0.48826    0.94998   1.00
C3a      0.74655    0.38737    0.89088   1.00
H1       0.76200    0.36735    0.87186   1.00
C3a      0.74757    0.43803    0.94045   1.00
H1       0.76381    0.45715    0.95972   1.00
C2       0.76743    0.41213    0.91583   1.00
C2       0.41583    0.26743    0.91787   1.00
C3a      0.44100    0.24616    0.94207   1.00
H1       0.46070    0.26131    0.96165   1.00
C3a      0.39033    0.24796    0.89253   1.00
H1       0.37088    0.26449    0.87384   1.00
C3b      0.44095    0.20562    0.94121   1.00
C5       0.46839    0.18356    0.96761   1.00
H2       0.48834    0.16516    0.94998   1.00
H2       0.48650    0.20339    0.98573   1.00
H2       0.45158    0.16440    0.98756   1.00
C3b      0.38972    0.20744    0.89112   1.00
C5       0.36194    0.18733    0.86353   1.00
H2       0.34169    0.16830    0.88011   1.00
H2       0.34416    0.20845    0.84657   1.00
H2       0.37845    0.16906    0.84254   1.00
C4       0.41517    0.18627    0.91560   1.00
C4       0.41483    0.14373    0.91440   1.00
C3b      0.43972    0.12399    0.88822   1.00
C5       0.46691    0.14563    0.86121   1.00
H2       0.48753    0.16371    0.87838   1.00
H2       0.48429    0.12551    0.84270   1.00
H2       0.44995    0.16505    0.84164   1.00
C3b      0.38961    0.12296    0.93945   1.00
C5       0.36276    0.14348    0.96765   1.00
H2       0.34244    0.16283    0.95152   1.00
H2       0.34505    0.12265    0.98501   1.00
H2       0.38002    0.16150    0.98826   1.00
C3a      0.43912    0.08345    0.88737   1.00
H1       0.45814    0.06800    0.86735   1.00
C3a      0.38955    0.08243    0.93803   1.00
H1       0.37028    0.06619    0.95715   1.00
C2       0.41417    0.06257    0.91213   1.00
C2       0.41787    0.41583    0.76743   1.00
C3a      0.44207    0.44100    0.74616   1.00
H1       0.46165    0.46070    0.76131   1.00
C3a      0.39253    0.39033    0.74796   1.00
H1       0.37384    0.37088    0.76449   1.00
C3b      0.44121    0.44095    0.70562   1.00
C5       0.46761    0.46839    0.68356   1.00
H2       0.44998    0.48834    0.66516   1.00
H2       0.48573    0.48650    0.70339   1.00
H2       0.48756    0.45158    0.66440   1.00
C3b      0.39112    0.38972    0.70744   1.00
C5       0.36353    0.36194    0.68733   1.00
H2       0.38011    0.34169    0.66830   1.00
H2       0.34657    0.34416    0.70845   1.00
H2       0.34254    0.37845    0.66906   1.00
C4       0.41560    0.41517    0.68627   1.00
C4       0.41440    0.41483    0.64373   1.00
C3b      0.38822    0.43972    0.62399   1.00
C5       0.36121    0.46691    0.64563   1.00
H2       0.37838    0.48753    0.66371   1.00
H2       0.34270    0.48429    0.62551   1.00
H2       0.34164    0.44995    0.66505   1.00
C3b      0.43945    0.38961    0.62296   1.00
C5       0.46765    0.36276    0.64348   1.00
H2       0.45152    0.34244    0.66283   1.00
H2       0.48501    0.34505    0.62265   1.00
H2       0.48826    0.38002    0.66150   1.00
C3a      0.38737    0.43912    0.58345   1.00
H1       0.36735    0.45814    0.56800   1.00
C3a      0.43803    0.38955    0.58243   1.00
H1       0.45715    0.37028    0.56619   1.00
C2       0.41213    0.41417    0.56257   1.00
C2       0.41787    0.91417    0.56257   1.00
C3a      0.44207    0.88900    0.58384   1.00
H1       0.46165    0.86930    0.56869   1.00
C3a      0.39253    0.93967    0.58204   1.00
H1       0.37384    0.95912    0.56551   1.00
C3b      0.44121    0.88905    0.62438   1.00
C5       0.46761    0.86161    0.64644   1.00
H2       0.44998    0.84166    0.66484   1.00
H2       0.48573    0.84350    0.62661   1.00
H2       0.48756    0.87842    0.66560   1.00
C3b      0.39112    0.94028    0.62256   1.00
C5       0.36353    0.96806    0.64267   1.00
H2       0.38011    0.98831    0.66170   1.00
H2       0.34657    0.98584    0.62155   1.00
H2       0.34254    0.95155    0.66094   1.00
C4       0.41560    0.91483    0.64373   1.00
C4       0.41440    0.91517    0.68627   1.00
C3b      0.38822    0.89028    0.70601   1.00
C5       0.36121    0.86309    0.68437   1.00
H2       0.37838    0.84247    0.66629   1.00
H2       0.34270    0.84571    0.70449   1.00
H2       0.34164    0.88005    0.66495   1.00
C3b      0.43945    0.94039    0.70704   1.00
C5       0.46765    0.96724    0.68652   1.00
H2       0.45152    0.98756    0.66717   1.00
H2       0.48501    0.98495    0.70735   1.00
H2       0.48826    0.94998    0.66850   1.00
C3a      0.38737    0.89088    0.74655   1.00
H1       0.36735    0.87186    0.76200   1.00
C3a      0.43803    0.94045    0.74757   1.00
H1       0.45715    0.95972    0.76381   1.00
C2       0.41213    0.91583    0.76743   1.00
C2       0.41417    1.06257    0.41787   1.00
C3a      0.38900    1.08384    0.44207   1.00
H1       0.36930    1.06869    0.46165   1.00
C3a      0.43967    1.08204    0.39253   1.00
H1       0.45912    1.06551    0.37384   1.00
C3b      0.38905    1.12438    0.44121   1.00
C5       0.36161    1.14644    0.46761   1.00
H2       0.34166    1.16484    0.44998   1.00
H2       0.34350    1.12661    0.48573   1.00
H2       0.37842    1.16560    0.48756   1.00
C3b      0.44028    1.12256    0.39112   1.00
C5       0.46806    1.14267    0.36353   1.00
H2       0.48831    1.16170    0.38011   1.00
H2       0.48584    1.12155    0.34657   1.00
H2       0.45155    1.16094    0.34254   1.00
C4       0.41483    1.14373    0.41560   1.00
C4       0.41517    1.18627    0.41440   1.00
C3b      0.39028    1.20601    0.38822   1.00
C5       0.36309    1.18437    0.36121   1.00
H2       0.34247    1.16629    0.37838   1.00
H2       0.34571    1.20449    0.34270   1.00
H2       0.38005    1.16495    0.34164   1.00
C3b      0.44039    1.20704    0.43945   1.00
C5       0.46724    1.18652    0.46765   1.00
H2       0.48756    1.16717    0.45152   1.00
H2       0.48495    1.20735    0.48501   1.00
H2       0.44998    1.16850    0.48826   1.00
C3a      0.39088    1.24655    0.38737   1.00
H1       0.37186    1.26200    0.36735   1.00
C3a      0.44045    1.24757    0.43803   1.00
H1       0.45972    1.26381    0.45715   1.00
C2       0.41583    1.26743    0.41213   1.00
C2       0.26743    0.91787    0.41583   1.00
C3a      0.24616    0.94207    0.44100   1.00
H1       0.26131    0.96165    0.46070   1.00
C3a      0.24796    0.89253    0.39033   1.00
H1       0.26449    0.87384    0.37088   1.00
C3b      0.20562    0.94121    0.44095   1.00
C5       0.18356    0.96761    0.46839   1.00
H2       0.16516    0.94998    0.48834   1.00
H2       0.20339    0.98573    0.48650   1.00
H2       0.16440    0.98756    0.45158   1.00
C3b      0.20744    0.89112    0.38972   1.00
C5       0.18733    0.86353    0.36194   1.00
H2       0.16830    0.88011    0.34169   1.00
H2       0.20845    0.84657    0.34416   1.00
H2       0.16906    0.84254    0.37845   1.00
C4       0.18627    0.91560    0.41517   1.00
C4       0.14373    0.91440    0.41483   1.00
C3b      0.12399    0.88822    0.43972   1.00
C5       0.14563    0.86121    0.46691   1.00
H2       0.16371    0.87838    0.48753   1.00
H2       0.12551    0.84270    0.48429   1.00
H2       0.16505    0.84164    0.44995   1.00
C3b      0.12296    0.93945    0.38961   1.00
C5       0.14348    0.96765    0.36276   1.00
H2       0.16283    0.95152    0.34244   1.00
H2       0.12265    0.98501    0.34505   1.00
H2       0.16150    0.98826    0.38002   1.00
C3a      0.08345    0.88737    0.43912   1.00
H1       0.06800    0.86735    0.45814   1.00
C3a      0.08243    0.93803    0.38955   1.00
H1       0.06619    0.95715    0.37028   1.00
C2       0.06257    0.91213    0.41417   1.00
C2       0.56257    0.91787    0.41417   1.00
C3a      0.58384    0.94207    0.38900   1.00
H1       0.56869    0.96165    0.36930   1.00
C3a      0.58204    0.89253    0.43967   1.00
H1       0.56551    0.87384    0.45912   1.00
C3b      0.62438    0.94121    0.38905   1.00
C5       0.64644    0.96761    0.36161   1.00
H2       0.66484    0.94998    0.34166   1.00
H2       0.62661    0.98573    0.34350   1.00
H2       0.66560    0.98756    0.37842   1.00
C3b      0.62256    0.89112    0.44028   1.00
C5       0.64267    0.86353    0.46806   1.00
H2       0.66170    0.88011    0.48831   1.00
H2       0.62155    0.84657    0.48584   1.00
H2       0.66094    0.84254    0.45155   1.00
C4       0.64373    0.91560    0.41483   1.00
C4       0.68627    0.91440    0.41517   1.00
C3b      0.70601    0.88822    0.39028   1.00
C5       0.68437    0.86121    0.36309   1.00
H2       0.66629    0.87838    0.34247   1.00
H2       0.70449    0.84270    0.34571   1.00
H2       0.66495    0.84164    0.38005   1.00
C3b      0.70704    0.93945    0.44039   1.00
C5       0.68652    0.96765    0.46724   1.00
H2       0.66717    0.95152    0.48756   1.00
H2       0.70735    0.98501    0.48495   1.00
H2       0.66850    0.98826    0.44998   1.00
C3a      0.74655    0.88737    0.39088   1.00
H1       0.76200    0.86735    0.37186   1.00
C3a      0.74757    0.93803    0.44045   1.00
H1       0.76381    0.95715    0.45972   1.00
C2       0.76743    0.91213    0.41583   1.00
C2       0.41583    0.76743    0.41787   1.00
C3a      0.44100    0.74616    0.44207   1.00
H1       0.46070    0.76131    0.46165   1.00
C3a      0.39033    0.74796    0.39253   1.00
H1       0.37088    0.76449    0.37384   1.00
C3b      0.44095    0.70562    0.44121   1.00
C5       0.46839    0.68356    0.46761   1.00
H2       0.48834    0.66516    0.44998   1.00
H2       0.48650    0.70339    0.48573   1.00
H2       0.45158    0.66440    0.48756   1.00
C3b      0.38972    0.70744    0.39112   1.00
C5       0.36194    0.68733    0.36353   1.00
H2       0.34169    0.66830    0.38011   1.00
H2       0.34416    0.70845    0.34657   1.00
H2       0.37845    0.66906    0.34254   1.00
C4       0.41517    0.68627    0.41560   1.00
C4       0.41483    0.64373    0.41440   1.00
C3b      0.43972    0.62399    0.38822   1.00
C5       0.46691    0.64563    0.36121   1.00
H2       0.48753    0.66371    0.37838   1.00
H2       0.48429    0.62551    0.34270   1.00
H2       0.44995    0.66505    0.34164   1.00
C3b      0.38961    0.62296    0.43945   1.00
C5       0.36276    0.64348    0.46765   1.00
H2       0.34244    0.66283    0.45152   1.00
H2       0.34505    0.62265    0.48501   1.00
H2       0.38002    0.66150    0.48826   1.00
C3a      0.43912    0.58345    0.38737   1.00
H1       0.45814    0.56800    0.36735   1.00
C3a      0.38955    0.58243    0.43803   1.00
H1       0.37028    0.56619    0.45715   1.00
C2       0.41417    0.56257    0.41213   1.00
C2       0.41787    0.91583    0.26743   1.00
C3a      0.44207    0.94100    0.24616   1.00
H1       0.46165    0.96070    0.26131   1.00
C3a      0.39253    0.89033    0.24796   1.00
H1       0.37384    0.87088    0.26449   1.00
C3b      0.44121    0.94095    0.20562   1.00
C5       0.46761    0.96839    0.18356   1.00
H2       0.44998    0.98834    0.16516   1.00
H2       0.48573    0.98650    0.20339   1.00
H2       0.48756    0.95158    0.16440   1.00
C3b      0.39112    0.88972    0.20744   1.00
C5       0.36353    0.86194    0.18733   1.00
H2       0.38011    0.84169    0.16830   1.00
H2       0.34657    0.84416    0.20845   1.00
H2       0.34254    0.87845    0.16906   1.00
C4       0.41560    0.91517    0.18627   1.00
C4       0.41440    0.91483    0.14373   1.00
C3b      0.38822    0.93972    0.12399   1.00
C5       0.36121    0.96691    0.14563   1.00
H2       0.37838    0.98753    0.16371   1.00
H2       0.34270    0.98429    0.12551   1.00
H2       0.34164    0.94995    0.16505   1.00
C3b      0.43945    0.88961    0.12296   1.00
C5       0.46765    0.86276    0.14348   1.00
H2       0.45152    0.84244    0.16283   1.00
H2       0.48501    0.84505    0.12265   1.00
H2       0.48826    0.88002    0.16150   1.00
C3a      0.38737    0.93912    0.08345   1.00
H1       0.36735    0.95814    0.06800   1.00
C3a      0.43803    0.88955    0.08243   1.00
H1       0.45715    0.87028    0.06619   1.00
C2       0.41213    0.91417    0.06257   1.00
C2       0.91787    0.41417    0.56257   1.00
C3a      0.94207    0.38900    0.58384   1.00
H1       0.96165    0.36930    0.56869   1.00
C3a      0.89253    0.43967    0.58204   1.00
H1       0.87384    0.45912    0.56551   1.00
C3b      0.94121    0.38905    0.62438   1.00
C5       0.96761    0.36161    0.64644   1.00
H2       0.94998    0.34166    0.66484   1.00
H2       0.98573    0.34350    0.62661   1.00
H2       0.98756    0.37842    0.66560   1.00
C3b      0.89112    0.44028    0.62256   1.00
C5       0.86353    0.46806    0.64267   1.00
H2       0.88011    0.48831    0.66170   1.00
H2       0.84657    0.48584    0.62155   1.00
H2       0.84254    0.45155    0.66094   1.00
C4       0.91560    0.41483    0.64373   1.00
C4       0.91440    0.41517    0.68627   1.00
C3b      0.88822    0.39028    0.70601   1.00
C5       0.86121    0.36309    0.68437   1.00
H2       0.87838    0.34247    0.66629   1.00
H2       0.84270    0.34571    0.70449   1.00
H2       0.84164    0.38005    0.66495   1.00
C3b      0.93945    0.44039    0.70704   1.00
C5       0.96765    0.46724    0.68652   1.00
H2       0.95152    0.48756    0.66717   1.00
H2       0.98501    0.48495    0.70735   1.00
H2       0.98826    0.44998    0.66850   1.00
C3a      0.88737    0.39088    0.74655   1.00
H1       0.86735    0.37186    0.76200   1.00
C3a      0.93803    0.44045    0.74757   1.00
H1       0.95715    0.45972    0.76381   1.00
C2       0.91213    0.41583    0.76743   1.00
C2       0.91417    0.56257    0.41787   1.00
C3a      0.88900    0.58384    0.44207   1.00
H1       0.86930    0.56869    0.46165   1.00
C3a      0.93967    0.58204    0.39253   1.00
H1       0.95912    0.56551    0.37384   1.00
C3b      0.88905    0.62438    0.44121   1.00
C5       0.86161    0.64644    0.46761   1.00
H2       0.84166    0.66484    0.44998   1.00
H2       0.84350    0.62661    0.48573   1.00
H2       0.87842    0.66560    0.48756   1.00
C3b      0.94028    0.62256    0.39112   1.00
C5       0.96806    0.64267    0.36353   1.00
H2       0.98831    0.66170    0.38011   1.00
H2       0.98584    0.62155    0.34657   1.00
H2       0.95155    0.66094    0.34254   1.00
C4       0.91483    0.64373    0.41560   1.00
C4       0.91517    0.68627    0.41440   1.00
C3b      0.89028    0.70601    0.38822   1.00
C5       0.86309    0.68437    0.36121   1.00
H2       0.84247    0.66629    0.37838   1.00
H2       0.84571    0.70449    0.34270   1.00
H2       0.88005    0.66495    0.34164   1.00
C3b      0.94039    0.70704    0.43945   1.00
C5       0.96724    0.68652    0.46765   1.00
H2       0.98756    0.66717    0.45152   1.00
H2       0.98495    0.70735    0.48501   1.00
H2       0.94998    0.66850    0.48826   1.00
C3a      0.89088    0.74655    0.38737   1.00
H1       0.87186    0.76200    0.36735   1.00
C3a      0.94045    0.74757    0.43803   1.00
H1       0.95972    0.76381    0.45715   1.00
C2       0.91583    0.76743    0.41213   1.00
C2       0.76743    0.41787    0.41583   1.00
C3a      0.74616    0.44207    0.44100   1.00
H1       0.76131    0.46165    0.46070   1.00
C3a      0.74796    0.39253    0.39033   1.00
H1       0.76449    0.37384    0.37088   1.00
C3b      0.70562    0.44121    0.44095   1.00
C5       0.68356    0.46761    0.46839   1.00
H2       0.66516    0.44998    0.48834   1.00
H2       0.70339    0.48573    0.48650   1.00
H2       0.66440    0.48756    0.45158   1.00
C3b      0.70744    0.39112    0.38972   1.00
C5       0.68733    0.36353    0.36194   1.00
H2       0.66830    0.38011    0.34169   1.00
H2       0.70845    0.34657    0.34416   1.00
H2       0.66906    0.34254    0.37845   1.00
C4       0.68627    0.41560    0.41517   1.00
C4       0.64373    0.41440    0.41483   1.00
C3b      0.62399    0.38822    0.43972   1.00
C5       0.64563    0.36121    0.46691   1.00
H2       0.66371    0.37838    0.48753   1.00
H2       0.62551    0.34270    0.48429   1.00
H2       0.66505    0.34164    0.44995   1.00
C3b      0.62296    0.43945    0.38961   1.00
C5       0.64348    0.46765    0.36276   1.00
H2       0.66283    0.45152    0.34244   1.00
H2       0.62265    0.48501    0.34505   1.00
H2       0.66150    0.48826    0.38002   1.00
C3a      0.58345    0.38737    0.43912   1.00
H1       0.56800    0.36735    0.45814   1.00
C3a      0.58243    0.43803    0.38955   1.00
H1       0.56619    0.45715    0.37028   1.00
C2       0.56257    0.41213    0.41417   1.00
C2       1.06257    0.41787    0.41417   1.00
C3a      1.08384    0.44207    0.38900   1.00
H1       1.06869    0.46165    0.36930   1.00
C3a      1.08204    0.39253    0.43967   1.00
H1       1.06551    0.37384    0.45912   1.00
C3b      1.12438    0.44121    0.38905   1.00
C5       1.14644    0.46761    0.36161   1.00
H2       1.16484    0.44998    0.34166   1.00
H2       1.12661    0.48573    0.34350   1.00
H2       1.16560    0.48756    0.37842   1.00
C3b      1.12256    0.39112    0.44028   1.00
C5       1.14267    0.36353    0.46806   1.00
H2       1.16170    0.38011    0.48831   1.00
H2       1.12155    0.34657    0.48584   1.00
H2       1.16094    0.34254    0.45155   1.00
C4       1.14373    0.41560    0.41483   1.00
C4       1.18627    0.41440    0.41517   1.00
C3b      1.20601    0.38822    0.39028   1.00
C5       1.18437    0.36121    0.36309   1.00
H2       1.16629    0.37838    0.34247   1.00
H2       1.20449    0.34270    0.34571   1.00
H2       1.16495    0.34164    0.38005   1.00
C3b      1.20704    0.43945    0.44039   1.00
C5       1.18652    0.46765    0.46724   1.00
H2       1.16717    0.45152    0.48756   1.00
H2       1.20735    0.48501    0.48495   1.00
H2       1.16850    0.48826    0.44998   1.00
C3a      1.24655    0.38737    0.39088   1.00
H1       1.26200    0.36735    0.37186   1.00
C3a      1.24757    0.43803    0.44045   1.00
H1       1.26381    0.45715    0.45972   1.00
C2       1.26743    0.41213    0.41583   1.00
C2       0.91583    0.26743    0.41787   1.00
C3a      0.94100    0.24616    0.44207   1.00
H1       0.96070    0.26131    0.46165   1.00
C3a      0.89033    0.24796    0.39253   1.00
H1       0.87088    0.26449    0.37384   1.00
C3b      0.94095    0.20562    0.44121   1.00
C5       0.96839    0.18356    0.46761   1.00
H2       0.98834    0.16516    0.44998   1.00
H2       0.98650    0.20339    0.48573   1.00
H2       0.95158    0.16440    0.48756   1.00
C3b      0.88972    0.20744    0.39112   1.00
C5       0.86194    0.18733    0.36353   1.00
H2       0.84169    0.16830    0.38011   1.00
H2       0.84416    0.20845    0.34657   1.00
H2       0.87845    0.16906    0.34254   1.00
C4       0.91517    0.18627    0.41560   1.00
C4       0.91483    0.14373    0.41440   1.00
C3b      0.93972    0.12399    0.38822   1.00
C5       0.96691    0.14563    0.36121   1.00
H2       0.98753    0.16371    0.37838   1.00
H2       0.98429    0.12551    0.34270   1.00
H2       0.94995    0.16505    0.34164   1.00
C3b      0.88961    0.12296    0.43945   1.00
C5       0.86276    0.14348    0.46765   1.00
H2       0.84244    0.16283    0.45152   1.00
H2       0.84505    0.12265    0.48501   1.00
H2       0.88002    0.16150    0.48826   1.00
C3a      0.93912    0.08345    0.38737   1.00
H1       0.95814    0.06800    0.36735   1.00
C3a      0.88955    0.08243    0.43803   1.00
H1       0.87028    0.06619    0.45715   1.00
C2       0.91417    0.06257    0.41213   1.00
C2       0.91787    0.41583    0.26743   1.00
C3a      0.94207    0.44100    0.24616   1.00
H1       0.96165    0.46070    0.26131   1.00
C3a      0.89253    0.39033    0.24796   1.00
H1       0.87384    0.37088    0.26449   1.00
C3b      0.94121    0.44095    0.20562   1.00
C5       0.96761    0.46839    0.18356   1.00
H2       0.94998    0.48834    0.16516   1.00
H2       0.98573    0.48650    0.20339   1.00
H2       0.98756    0.45158    0.16440   1.00
C3b      0.89112    0.38972    0.20744   1.00
C5       0.86353    0.36194    0.18733   1.00
H2       0.88011    0.34169    0.16830   1.00
H2       0.84657    0.34416    0.20845   1.00
H2       0.84254    0.37845    0.16906   1.00
C4       0.91560    0.41517    0.18627   1.00
C4       0.91440    0.41483    0.14373   1.00
C3b      0.88822    0.43972    0.12399   1.00
C5       0.86121    0.46691    0.14563   1.00
H2       0.87838    0.48753    0.16371   1.00
H2       0.84270    0.48429    0.12551   1.00
H2       0.84164    0.44995    0.16505   1.00
C3b      0.93945    0.38961    0.12296   1.00
C5       0.96765    0.36276    0.14348   1.00
H2       0.95152    0.34244    0.16283   1.00
H2       0.98501    0.34505    0.12265   1.00
H2       0.98826    0.38002    0.16150   1.00
C3a      0.88737    0.43912    0.08345   1.00
H1       0.86735    0.45814    0.06800   1.00
C3a      0.93803    0.38955    0.08243   1.00
H1       0.95715    0.37028    0.06619   1.00
C2       0.91213    0.41417    0.06257   1.00
