data_IRMOF10_SG202_interpen_Ligand11cp_label_d.

_audit_creation_method             'generated by an auxiliary program of Tobunporous'

_symmetry_space_group_name_H-M     'P 1'
_symmetry_Int_Tables_number        1
_symmetry_cell_setting             triclinic

_cell_length_a                    34.2800
_cell_length_b                    34.2800
_cell_length_c                    34.2800
_cell_angle_alpha                 90.0000
_cell_angle_beta                  90.0000
_cell_angle_gamma                 90.0000

loop_
_atom_site_label
_atom_site_fract_x
_atom_site_fract_y
_atom_site_fract_z
_atom_site_occupancy
O1       0.75000    0.75000    0.75000   1.00
Zn1      0.71720    0.78280    0.78280   1.00
Zn1      0.78280    0.71720    0.78280   1.00
Zn1      0.78280    0.78280    0.71720   1.00
Zn1      0.71720    0.71720    0.71720   1.00
O2       0.72650    0.77350    0.83820   1.00
O2       0.72650    0.83820    0.77350   1.00
O2       0.66180    0.77350    0.77350   1.00
O2       0.77350    0.72650    0.83820   1.00
O2       0.83820    0.72650    0.77350   1.00
O2       0.77350    0.66180    0.77350   1.00
O2       0.77350    0.83820    0.72650   1.00
O2       0.83820    0.77350    0.72650   1.00
O2       0.77350    0.77350    0.66180   1.00
O2       0.66180    0.72650    0.72650   1.00
O2       0.72650    0.66180    0.72650   1.00
O2       0.72650    0.72650    0.66180   1.00
C1       0.75000    0.75000    0.85520   1.00
C1       0.75000    0.85520    0.75000   1.00
C1       0.64480    0.75000    0.75000   1.00
C1       0.85520    0.75000    0.75000   1.00
C1       0.75000    0.64480    0.75000   1.00
C1       0.75000    0.75000    0.64480   1.00
O1       0.25000    0.25000    0.75000   1.00
Zn1      0.21720    0.28280    0.78280   1.00
Zn1      0.28280    0.21720    0.78280   1.00
Zn1      0.28280    0.28280    0.71720   1.00
Zn1      0.21720    0.21720    0.71720   1.00
O2       0.22650    0.27350    0.83820   1.00
O2       0.22650    0.33820    0.77350   1.00
O2       0.16180    0.27350    0.77350   1.00
O2       0.27350    0.22650    0.83820   1.00
O2       0.33820    0.22650    0.77350   1.00
O2       0.27350    0.16180    0.77350   1.00
O2       0.27350    0.33820    0.72650   1.00
O2       0.33820    0.27350    0.72650   1.00
O2       0.27350    0.27350    0.66180   1.00
O2       0.16180    0.22650    0.72650   1.00
O2       0.22650    0.16180    0.72650   1.00
O2       0.22650    0.22650    0.66180   1.00
C1       0.25000    0.25000    0.85520   1.00
C1       0.25000    0.35520    0.75000   1.00
C1       0.14480    0.25000    0.75000   1.00
C1       0.35520    0.25000    0.75000   1.00
C1       0.25000    0.14480    0.75000   1.00
C1       0.25000    0.25000    0.64480   1.00
O1       0.25000    0.75000    0.25000   1.00
Zn1      0.21720    0.78280    0.28280   1.00
Zn1      0.28280    0.71720    0.28280   1.00
Zn1      0.28280    0.78280    0.21720   1.00
Zn1      0.21720    0.71720    0.21720   1.00
O2       0.22650    0.77350    0.33820   1.00
O2       0.22650    0.83820    0.27350   1.00
O2       0.16180    0.77350    0.27350   1.00
O2       0.27350    0.72650    0.33820   1.00
O2       0.33820    0.72650    0.27350   1.00
O2       0.27350    0.66180    0.27350   1.00
O2       0.27350    0.83820    0.22650   1.00
O2       0.33820    0.77350    0.22650   1.00
O2       0.27350    0.77350    0.16180   1.00
O2       0.16180    0.72650    0.22650   1.00
O2       0.22650    0.66180    0.22650   1.00
O2       0.22650    0.72650    0.16180   1.00
C1       0.25000    0.75000    0.35520   1.00
C1       0.25000    0.85520    0.25000   1.00
C1       0.14480    0.75000    0.25000   1.00
C1       0.35520    0.75000    0.25000   1.00
C1       0.25000    0.64480    0.25000   1.00
C1       0.25000    0.75000    0.14480   1.00
O1       0.75000    0.25000    0.25000   1.00
Zn1      0.71720    0.28280    0.28280   1.00
Zn1      0.78280    0.21720    0.28280   1.00
Zn1      0.78280    0.28280    0.21720   1.00
Zn1      0.71720    0.21720    0.21720   1.00
O2       0.72650    0.27350    0.33820   1.00
O2       0.72650    0.33820    0.27350   1.00
O2       0.66180    0.27350    0.27350   1.00
O2       0.77350    0.22650    0.33820   1.00
O2       0.83820    0.22650    0.27350   1.00
O2       0.77350    0.16180    0.27350   1.00
O2       0.77350    0.33820    0.22650   1.00
O2       0.83820    0.27350    0.22650   1.00
O2       0.77350    0.27350    0.16180   1.00
O2       0.66180    0.22650    0.22650   1.00
O2       0.72650    0.16180    0.22650   1.00
O2       0.72650    0.22650    0.16180   1.00
C1       0.75000    0.25000    0.35520   1.00
C1       0.75000    0.35520    0.25000   1.00
C1       0.64480    0.25000    0.25000   1.00
C1       0.85520    0.25000    0.25000   1.00
C1       0.75000    0.14480    0.25000   1.00
C1       0.75000    0.25000    0.14480   1.00
O1       0.25000    0.25000    0.25000   1.00
Zn1      0.28280    0.21720    0.21720   1.00
Zn1      0.21720    0.28280    0.21720   1.00
Zn1      0.21720    0.21720    0.28280   1.00
Zn1      0.28280    0.28280    0.28280   1.00
O2       0.27350    0.22650    0.16180   1.00
O2       0.27350    0.16180    0.22650   1.00
O2       0.33820    0.22650    0.22650   1.00
O2       0.22650    0.27350    0.16180   1.00
O2       0.16180    0.27350    0.22650   1.00
O2       0.22650    0.33820    0.22650   1.00
O2       0.22650    0.16180    0.27350   1.00
O2       0.16180    0.22650    0.27350   1.00
O2       0.22650    0.22650    0.33820   1.00
O2       0.33820    0.27350    0.27350   1.00
O2       0.27350    0.33820    0.27350   1.00
O2       0.27350    0.27350    0.33820   1.00
C1       0.25000    0.25000    0.14480   1.00
C1       0.25000    0.14480    0.25000   1.00
C1       0.35520    0.25000    0.25000   1.00
C1       0.14480    0.25000    0.25000   1.00
C1       0.25000    0.35520    0.25000   1.00
C1       0.25000    0.25000    0.35520   1.00
O1       0.75000    0.75000    0.25000   1.00
Zn1      0.78280    0.71720    0.21720   1.00
Zn1      0.71720    0.78280    0.21720   1.00
Zn1      0.71720    0.71720    0.28280   1.00
Zn1      0.78280    0.78280    0.28280   1.00
O2       0.77350    0.72650    0.16180   1.00
O2       0.77350    0.66180    0.22650   1.00
O2       0.83820    0.72650    0.22650   1.00
O2       0.72650    0.77350    0.16180   1.00
O2       0.66180    0.77350    0.22650   1.00
O2       0.72650    0.83820    0.22650   1.00
O2       0.72650    0.66180    0.27350   1.00
O2       0.66180    0.72650    0.27350   1.00
O2       0.72650    0.72650    0.33820   1.00
O2       0.83820    0.77350    0.27350   1.00
O2       0.77350    0.83820    0.27350   1.00
O2       0.77350    0.77350    0.33820   1.00
C1       0.75000    0.75000    0.14480   1.00
C1       0.75000    0.64480    0.25000   1.00
C1       0.85520    0.75000    0.25000   1.00
C1       0.64480    0.75000    0.25000   1.00
C1       0.75000    0.85520    0.25000   1.00
C1       0.75000    0.75000    0.35520   1.00
O1       0.75000    0.25000    0.75000   1.00
Zn1      0.78280    0.21720    0.71720   1.00
Zn1      0.71720    0.28280    0.71720   1.00
Zn1      0.71720    0.21720    0.78280   1.00
Zn1      0.78280    0.28280    0.78280   1.00
O2       0.77350    0.22650    0.66180   1.00
O2       0.77350    0.16180    0.72650   1.00
O2       0.83820    0.22650    0.72650   1.00
O2       0.72650    0.27350    0.66180   1.00
O2       0.66180    0.27350    0.72650   1.00
O2       0.72650    0.33820    0.72650   1.00
O2       0.72650    0.16180    0.77350   1.00
O2       0.66180    0.22650    0.77350   1.00
O2       0.72650    0.22650    0.83820   1.00
O2       0.83820    0.27350    0.77350   1.00
O2       0.77350    0.33820    0.77350   1.00
O2       0.77350    0.27350    0.83820   1.00
C1       0.75000    0.25000    0.64480   1.00
C1       0.75000    0.14480    0.75000   1.00
C1       0.85520    0.25000    0.75000   1.00
C1       0.64480    0.25000    0.75000   1.00
C1       0.75000    0.35520    0.75000   1.00
C1       0.75000    0.25000    0.85520   1.00
O1       0.25000    0.75000    0.75000   1.00
Zn1      0.28280    0.71720    0.71720   1.00
Zn1      0.21720    0.78280    0.71720   1.00
Zn1      0.21720    0.71720    0.78280   1.00
Zn1      0.28280    0.78280    0.78280   1.00
O2       0.27350    0.72650    0.66180   1.00
O2       0.27350    0.66180    0.72650   1.00
O2       0.33820    0.72650    0.72650   1.00
O2       0.22650    0.77350    0.66180   1.00
O2       0.16180    0.77350    0.72650   1.00
O2       0.22650    0.83820    0.72650   1.00
O2       0.22650    0.66180    0.77350   1.00
O2       0.16180    0.72650    0.77350   1.00
O2       0.22650    0.72650    0.83820   1.00
O2       0.33820    0.77350    0.77350   1.00
O2       0.27350    0.83820    0.77350   1.00
O2       0.27350    0.77350    0.83820   1.00
C1       0.25000    0.75000    0.64480   1.00
C1       0.25000    0.64480    0.75000   1.00
C1       0.35520    0.75000    0.75000   1.00
C1       0.14480    0.75000    0.75000   1.00
C1       0.25000    0.85520    0.75000   1.00
C1       0.25000    0.75000    0.85520   1.00
O1       0.91500    0.91500    0.91500   1.00
Zn1      0.88220    0.94780    0.94780   1.00
Zn1      0.94780    0.88220    0.94780   1.00
Zn1      0.94780    0.94780    0.88220   1.00
Zn1      0.88220    0.88220    0.88220   1.00
O2       0.89150    0.93850    1.00320   1.00
O2       0.89150    1.00320    0.93850   1.00
O2       0.82680    0.93850    0.93850   1.00
O2       0.93850    0.89150    1.00320   1.00
O2       1.00320    0.89150    0.93850   1.00
O2       0.93850    0.82680    0.93850   1.00
O2       0.93850    1.00320    0.89150   1.00
O2       1.00320    0.93850    0.89150   1.00
O2       0.93850    0.93850    0.82680   1.00
O2       0.82680    0.89150    0.89150   1.00
O2       0.89150    0.82680    0.89150   1.00
O2       0.89150    0.89150    0.82680   1.00
C1       0.91500    0.91500    1.02020   1.00
C1       0.91500    1.02020    0.91500   1.00
C1       0.80980    0.91500    0.91500   1.00
C1       1.02020    0.91500    0.91500   1.00
C1       0.91500    0.80980    0.91500   1.00
C1       0.91500    0.91500    0.80980   1.00
O1       0.41500    0.41500    0.91500   1.00
Zn1      0.38220    0.44780    0.94780   1.00
Zn1      0.44780    0.38220    0.94780   1.00
Zn1      0.44780    0.44780    0.88220   1.00
Zn1      0.38220    0.38220    0.88220   1.00
O2       0.39150    0.43850    1.00320   1.00
O2       0.39150    0.50320    0.93850   1.00
O2       0.32680    0.43850    0.93850   1.00
O2       0.43850    0.39150    1.00320   1.00
O2       0.50320    0.39150    0.93850   1.00
O2       0.43850    0.32680    0.93850   1.00
O2       0.43850    0.50320    0.89150   1.00
O2       0.50320    0.43850    0.89150   1.00
O2       0.43850    0.43850    0.82680   1.00
O2       0.32680    0.39150    0.89150   1.00
O2       0.39150    0.32680    0.89150   1.00
O2       0.39150    0.39150    0.82680   1.00
C1       0.41500    0.41500    1.02020   1.00
C1       0.41500    0.52020    0.91500   1.00
C1       0.30980    0.41500    0.91500   1.00
C1       0.52020    0.41500    0.91500   1.00
C1       0.41500    0.30980    0.91500   1.00
C1       0.41500    0.41500    0.80980   1.00
O1       0.41500    0.91500    0.41500   1.00
Zn1      0.38220    0.94780    0.44780   1.00
Zn1      0.44780    0.88220    0.44780   1.00
Zn1      0.44780    0.94780    0.38220   1.00
Zn1      0.38220    0.88220    0.38220   1.00
O2       0.39150    0.93850    0.50320   1.00
O2       0.39150    1.00320    0.43850   1.00
O2       0.32680    0.93850    0.43850   1.00
O2       0.43850    0.89150    0.50320   1.00
O2       0.50320    0.89150    0.43850   1.00
O2       0.43850    0.82680    0.43850   1.00
O2       0.43850    1.00320    0.39150   1.00
O2       0.50320    0.93850    0.39150   1.00
O2       0.43850    0.93850    0.32680   1.00
O2       0.32680    0.89150    0.39150   1.00
O2       0.39150    0.82680    0.39150   1.00
O2       0.39150    0.89150    0.32680   1.00
C1       0.41500    0.91500    0.52020   1.00
C1       0.41500    1.02020    0.41500   1.00
C1       0.30980    0.91500    0.41500   1.00
C1       0.52020    0.91500    0.41500   1.00
C1       0.41500    0.80980    0.41500   1.00
C1       0.41500    0.91500    0.30980   1.00
O1       0.91500    0.41500    0.41500   1.00
Zn1      0.88220    0.44780    0.44780   1.00
Zn1      0.94780    0.38220    0.44780   1.00
Zn1      0.94780    0.44780    0.38220   1.00
Zn1      0.88220    0.38220    0.38220   1.00
O2       0.89150    0.43850    0.50320   1.00
O2       0.89150    0.50320    0.43850   1.00
O2       0.82680    0.43850    0.43850   1.00
O2       0.93850    0.39150    0.50320   1.00
O2       1.00320    0.39150    0.43850   1.00
O2       0.93850    0.32680    0.43850   1.00
O2       0.93850    0.50320    0.39150   1.00
O2       1.00320    0.43850    0.39150   1.00
O2       0.93850    0.43850    0.32680   1.00
O2       0.82680    0.39150    0.39150   1.00
O2       0.89150    0.32680    0.39150   1.00
O2       0.89150    0.39150    0.32680   1.00
C1       0.91500    0.41500    0.52020   1.00
C1       0.91500    0.52020    0.41500   1.00
C1       0.80980    0.41500    0.41500   1.00
C1       1.02020    0.41500    0.41500   1.00
C1       0.91500    0.30980    0.41500   1.00
C1       0.91500    0.41500    0.30980   1.00
O1       0.41500    0.41500    0.41500   1.00
Zn1      0.44780    0.38220    0.38220   1.00
Zn1      0.38220    0.44780    0.38220   1.00
Zn1      0.38220    0.38220    0.44780   1.00
Zn1      0.44780    0.44780    0.44780   1.00
O2       0.43850    0.39150    0.32680   1.00
O2       0.43850    0.32680    0.39150   1.00
O2       0.50320    0.39150    0.39150   1.00
O2       0.39150    0.43850    0.32680   1.00
O2       0.32680    0.43850    0.39150   1.00
O2       0.39150    0.50320    0.39150   1.00
O2       0.39150    0.32680    0.43850   1.00
O2       0.32680    0.39150    0.43850   1.00
O2       0.39150    0.39150    0.50320   1.00
O2       0.50320    0.43850    0.43850   1.00
O2       0.43850    0.50320    0.43850   1.00
O2       0.43850    0.43850    0.50320   1.00
C1       0.41500    0.41500    0.30980   1.00
C1       0.41500    0.30980    0.41500   1.00
C1       0.52020    0.41500    0.41500   1.00
C1       0.30980    0.41500    0.41500   1.00
C1       0.41500    0.52020    0.41500   1.00
C1       0.41500    0.41500    0.52020   1.00
O1       0.91500    0.91500    0.41500   1.00
Zn1      0.94780    0.88220    0.38220   1.00
Zn1      0.88220    0.94780    0.38220   1.00
Zn1      0.88220    0.88220    0.44780   1.00
Zn1      0.94780    0.94780    0.44780   1.00
O2       0.93850    0.89150    0.32680   1.00
O2       0.93850    0.82680    0.39150   1.00
O2       1.00320    0.89150    0.39150   1.00
O2       0.89150    0.93850    0.32680   1.00
O2       0.82680    0.93850    0.39150   1.00
O2       0.89150    1.00320    0.39150   1.00
O2       0.89150    0.82680    0.43850   1.00
O2       0.82680    0.89150    0.43850   1.00
O2       0.89150    0.89150    0.50320   1.00
O2       1.00320    0.93850    0.43850   1.00
O2       0.93850    1.00320    0.43850   1.00
O2       0.93850    0.93850    0.50320   1.00
C1       0.91500    0.91500    0.30980   1.00
C1       0.91500    0.80980    0.41500   1.00
C1       1.02020    0.91500    0.41500   1.00
C1       0.80980    0.91500    0.41500   1.00
C1       0.91500    1.02020    0.41500   1.00
C1       0.91500    0.91500    0.52020   1.00
O1       0.91500    0.41500    0.91500   1.00
Zn1      0.94780    0.38220    0.88220   1.00
Zn1      0.88220    0.44780    0.88220   1.00
Zn1      0.88220    0.38220    0.94780   1.00
Zn1      0.94780    0.44780    0.94780   1.00
O2       0.93850    0.39150    0.82680   1.00
O2       0.93850    0.32680    0.89150   1.00
O2       1.00320    0.39150    0.89150   1.00
O2       0.89150    0.43850    0.82680   1.00
O2       0.82680    0.43850    0.89150   1.00
O2       0.89150    0.50320    0.89150   1.00
O2       0.89150    0.32680    0.93850   1.00
O2       0.82680    0.39150    0.93850   1.00
O2       0.89150    0.39150    1.00320   1.00
O2       1.00320    0.43850    0.93850   1.00
O2       0.93850    0.50320    0.93850   1.00
O2       0.93850    0.43850    1.00320   1.00
C1       0.91500    0.41500    0.80980   1.00
C1       0.91500    0.30980    0.91500   1.00
C1       1.02020    0.41500    0.91500   1.00
C1       0.80980    0.41500    0.91500   1.00
C1       0.91500    0.52020    0.91500   1.00
C1       0.91500    0.41500    1.02020   1.00
O1       0.41500    0.91500    0.91500   1.00
Zn1      0.44780    0.88220    0.88220   1.00
Zn1      0.38220    0.94780    0.88220   1.00
Zn1      0.38220    0.88220    0.94780   1.00
Zn1      0.44780    0.94780    0.94780   1.00
O2       0.43850    0.89150    0.82680   1.00
O2       0.43850    0.82680    0.89150   1.00
O2       0.50320    0.89150    0.89150   1.00
O2       0.39150    0.93850    0.82680   1.00
O2       0.32680    0.93850    0.89150   1.00
O2       0.39150    1.00320    0.89150   1.00
O2       0.39150    0.82680    0.93850   1.00
O2       0.32680    0.89150    0.93850   1.00
O2       0.39150    0.89150    1.00320   1.00
O2       0.50320    0.93850    0.93850   1.00
O2       0.43850    1.00320    0.93850   1.00
O2       0.43850    0.93850    1.00320   1.00
C1       0.41500    0.91500    0.80980   1.00
C1       0.41500    0.80980    0.91500   1.00
C1       0.52020    0.91500    0.91500   1.00
C1       0.30980    0.91500    0.91500   1.00
C1       0.41500    1.02020    0.91500   1.00
C1       0.41500    0.91500    1.02020   1.00
C4       0.75018    0.75007    0.97915   1.00
C4       0.74982    0.74993    1.02085   1.00
C3a      0.76736    0.78123    0.95746   1.00
C3       0.78312    0.73875    1.04232   1.00
C3       0.73356    0.71913    0.95768   1.00
C3a      0.71597    0.76088    1.04254   1.00
C2       0.75003    0.74993    0.89488   1.00
C2       0.75003    0.74992    1.10512   1.00
C3       0.76694    0.78070    0.91595   1.00
C3       0.78321    0.73888    1.08363   1.00
C3       0.73341    0.71916    0.91637   1.00
C3       0.71664    0.76078    1.08405   1.00
C5       0.78585    0.81584    0.97772   1.00
H1       0.80937    0.73024    1.02691   1.00
H1       0.77985    0.80454    0.89979   1.00
H1       0.80943    0.73032    1.09901   1.00
H1       0.72016    0.69497    0.90099   1.00
H1       0.69090    0.76932    1.10021   1.00
C5       0.67880    0.77345    1.02228   1.00
H1       0.72025    0.69495    0.97309   1.00
H2       0.66060    0.79099    1.04256   1.00
H2       0.68569    0.79292    0.99731   1.00
H2       0.78710    0.84108    0.95744   1.00
H2       0.76750    0.82531    1.00269   1.00
N1       0.65664    0.73961    1.00857   1.00
C6       0.63952    0.71248    1.03073   1.00
C6       0.64872    0.73055    0.97154   1.00
C6       0.62087    0.68546    1.00759   1.00
C6       0.62671    0.69695    0.96995   1.00
H3       0.64073    0.71203    1.06197   1.00
H3       0.65859    0.74715    0.94700   1.00
H3       0.60478    0.66021    1.01713   1.00
H3       0.61613    0.68243    0.94425   1.00
N1       0.82517    0.80634    0.99143   1.00
C6       0.83714    0.80516    1.02846   1.00
C6       0.85621    0.79829    0.96927   1.00
C6       0.87618    0.79574    1.03005   1.00
C6       0.88831    0.79136    0.99241   1.00
H3       0.81858    0.81051    1.05300   1.00
H3       0.85564    0.79713    0.93803   1.00
H3       0.89384    0.79240    1.05575   1.00
H3       0.91732    0.78398    0.98287   1.00
C4       0.75007    0.97915    0.75018   1.00
C4       0.74993    1.02085    0.74982   1.00
C3a      0.78123    0.95746    0.76736   1.00
C3       0.73875    1.04232    0.78312   1.00
C3       0.71913    0.95768    0.73356   1.00
C3a      0.76088    1.04254    0.71597   1.00
C2       0.74993    0.89488    0.75003   1.00
C2       0.74992    1.10512    0.75003   1.00
C3       0.78070    0.91595    0.76694   1.00
C3       0.73888    1.08363    0.78321   1.00
C3       0.71916    0.91637    0.73341   1.00
C3       0.76078    1.08405    0.71664   1.00
C5       0.81584    0.97772    0.78585   1.00
H1       0.73024    1.02691    0.80937   1.00
H1       0.80454    0.89979    0.77985   1.00
H1       0.73032    1.09901    0.80943   1.00
H1       0.69497    0.90099    0.72016   1.00
H1       0.76932    1.10021    0.69090   1.00
C5       0.77345    1.02228    0.67880   1.00
H1       0.69495    0.97309    0.72025   1.00
H2       0.79099    1.04256    0.66060   1.00
H2       0.79292    0.99731    0.68569   1.00
H2       0.84108    0.95744    0.78710   1.00
H2       0.82531    1.00269    0.76750   1.00
N1       0.73961    1.00857    0.65664   1.00
C6       0.71248    1.03073    0.63952   1.00
C6       0.73055    0.97154    0.64872   1.00
C6       0.68546    1.00759    0.62087   1.00
C6       0.69695    0.96995    0.62671   1.00
H3       0.71203    1.06197    0.64073   1.00
H3       0.74715    0.94700    0.65859   1.00
H3       0.66021    1.01713    0.60478   1.00
H3       0.68243    0.94425    0.61613   1.00
N1       0.80634    0.99143    0.82517   1.00
C6       0.80516    1.02846    0.83714   1.00
C6       0.79829    0.96927    0.85621   1.00
C6       0.79574    1.03005    0.87618   1.00
C6       0.79136    0.99241    0.88831   1.00
H3       0.81051    1.05300    0.81858   1.00
H3       0.79713    0.93803    0.85564   1.00
H3       0.79240    1.05575    0.89384   1.00
H3       0.78398    0.98287    0.91732   1.00
C4       0.52085    0.75018    0.74993   1.00
C4       0.47915    0.74982    0.75007   1.00
C3a      0.54254    0.76736    0.71877   1.00
C3       0.45768    0.78312    0.76125   1.00
C3       0.54232    0.73356    0.78087   1.00
C3a      0.45746    0.71597    0.73912   1.00
C2       0.60512    0.75003    0.75007   1.00
C2       0.39488    0.75003    0.75008   1.00
C3       0.58405    0.76694    0.71930   1.00
C3       0.41637    0.78321    0.76112   1.00
C3       0.58363    0.73341    0.78084   1.00
C3       0.41595    0.71664    0.73922   1.00
C5       0.52228    0.78585    0.68416   1.00
H1       0.47309    0.80937    0.76976   1.00
H1       0.60021    0.77985    0.69546   1.00
H1       0.40099    0.80943    0.76968   1.00
H1       0.59901    0.72016    0.80503   1.00
H1       0.39979    0.69090    0.73068   1.00
C5       0.47772    0.67880    0.72655   1.00
H1       0.52691    0.72025    0.80505   1.00
H2       0.45744    0.66060    0.70901   1.00
H2       0.50269    0.68569    0.70708   1.00
H2       0.54256    0.78710    0.65892   1.00
H2       0.49731    0.76750    0.67469   1.00
N1       0.49143    0.65664    0.76039   1.00
C6       0.46927    0.63952    0.78752   1.00
C6       0.52846    0.64872    0.76945   1.00
C6       0.49241    0.62087    0.81454   1.00
C6       0.53005    0.62671    0.80305   1.00
H3       0.43803    0.64073    0.78797   1.00
H3       0.55300    0.65859    0.75285   1.00
H3       0.48287    0.60478    0.83979   1.00
H3       0.55575    0.61613    0.81757   1.00
N1       0.50857    0.82517    0.69366   1.00
C6       0.47154    0.83714    0.69484   1.00
C6       0.53073    0.85621    0.70171   1.00
C6       0.46995    0.87618    0.70426   1.00
C6       0.50759    0.88831    0.70864   1.00
H3       0.44700    0.81858    0.68949   1.00
H3       0.56197    0.85564    0.70287   1.00
H3       0.44425    0.89384    0.70760   1.00
H3       0.51713    0.91732    0.71602   1.00
C4       0.97915    0.75018    0.75007   1.00
C4       1.02085    0.74982    0.74993   1.00
C3a      0.95746    0.76736    0.78123   1.00
C3       1.04232    0.78312    0.73875   1.00
C3       0.95768    0.73356    0.71913   1.00
C3a      1.04254    0.71597    0.76088   1.00
C2       0.89488    0.75003    0.74993   1.00
C2       1.10512    0.75003    0.74992   1.00
C3       0.91595    0.76694    0.78070   1.00
C3       1.08363    0.78321    0.73888   1.00
C3       0.91637    0.73341    0.71916   1.00
C3       1.08405    0.71664    0.76078   1.00
C5       0.97772    0.78585    0.81584   1.00
H1       1.02691    0.80937    0.73024   1.00
H1       0.89979    0.77985    0.80454   1.00
H1       1.09901    0.80943    0.73032   1.00
H1       0.90099    0.72016    0.69497   1.00
H1       1.10021    0.69090    0.76932   1.00
C5       1.02228    0.67880    0.77345   1.00
H1       0.97309    0.72025    0.69495   1.00
H2       1.04256    0.66060    0.79099   1.00
H2       0.99731    0.68569    0.79292   1.00
H2       0.95744    0.78710    0.84108   1.00
H2       1.00269    0.76750    0.82531   1.00
N1       1.00857    0.65664    0.73961   1.00
C6       1.03073    0.63952    0.71248   1.00
C6       0.97154    0.64872    0.73055   1.00
C6       1.00759    0.62087    0.68546   1.00
C6       0.96995    0.62671    0.69695   1.00
H3       1.06197    0.64073    0.71203   1.00
H3       0.94700    0.65859    0.74715   1.00
H3       1.01713    0.60478    0.66021   1.00
H3       0.94425    0.61613    0.68243   1.00
N1       0.99143    0.82517    0.80634   1.00
C6       1.02846    0.83714    0.80516   1.00
C6       0.96927    0.85621    0.79829   1.00
C6       1.03005    0.87618    0.79574   1.00
C6       0.99241    0.88831    0.79136   1.00
H3       1.05300    0.81858    0.81051   1.00
H3       0.93803    0.85564    0.79713   1.00
H3       1.05575    0.89384    0.79240   1.00
H3       0.98287    0.91732    0.78398   1.00
C4       0.74993    0.52085    0.75018   1.00
C4       0.75007    0.47915    0.74982   1.00
C3a      0.71877    0.54254    0.76736   1.00
C3       0.76125    0.45768    0.78312   1.00
C3       0.78087    0.54232    0.73356   1.00
C3a      0.73912    0.45746    0.71597   1.00
C2       0.75007    0.60512    0.75003   1.00
C2       0.75008    0.39488    0.75003   1.00
C3       0.71930    0.58405    0.76694   1.00
C3       0.76112    0.41637    0.78321   1.00
C3       0.78084    0.58363    0.73341   1.00
C3       0.73922    0.41595    0.71664   1.00
C5       0.68416    0.52228    0.78585   1.00
H1       0.76976    0.47309    0.80937   1.00
H1       0.69546    0.60021    0.77985   1.00
H1       0.76968    0.40099    0.80943   1.00
H1       0.80503    0.59901    0.72016   1.00
H1       0.73068    0.39979    0.69090   1.00
C5       0.72655    0.47772    0.67880   1.00
H1       0.80505    0.52691    0.72025   1.00
H2       0.70901    0.45744    0.66060   1.00
H2       0.70708    0.50269    0.68569   1.00
H2       0.65892    0.54256    0.78710   1.00
H2       0.67469    0.49731    0.76750   1.00
N1       0.76039    0.49143    0.65664   1.00
C6       0.78752    0.46927    0.63952   1.00
C6       0.76945    0.52846    0.64872   1.00
C6       0.81454    0.49241    0.62087   1.00
C6       0.80305    0.53005    0.62671   1.00
H3       0.78797    0.43803    0.64073   1.00
H3       0.75285    0.55300    0.65859   1.00
H3       0.83979    0.48287    0.60478   1.00
H3       0.81757    0.55575    0.61613   1.00
N1       0.69366    0.50857    0.82517   1.00
C6       0.69484    0.47154    0.83714   1.00
C6       0.70171    0.53073    0.85621   1.00
C6       0.70426    0.46995    0.87618   1.00
C6       0.70864    0.50759    0.88831   1.00
H3       0.68949    0.44700    0.81858   1.00
H3       0.70287    0.56197    0.85564   1.00
H3       0.70760    0.44425    0.89384   1.00
H3       0.71602    0.51713    0.91732   1.00
C4       0.75018    0.74993    0.52085   1.00
C4       0.74982    0.75007    0.47915   1.00
C3a      0.76736    0.71877    0.54254   1.00
C3       0.78312    0.76125    0.45768   1.00
C3       0.73356    0.78087    0.54232   1.00
C3a      0.71597    0.73912    0.45746   1.00
C2       0.75003    0.75007    0.60512   1.00
C2       0.75003    0.75008    0.39488   1.00
C3       0.76694    0.71930    0.58405   1.00
C3       0.78321    0.76112    0.41637   1.00
C3       0.73341    0.78084    0.58363   1.00
C3       0.71664    0.73922    0.41595   1.00
C5       0.78585    0.68416    0.52228   1.00
H1       0.80937    0.76976    0.47309   1.00
H1       0.77985    0.69546    0.60021   1.00
H1       0.80943    0.76968    0.40099   1.00
H1       0.72016    0.80503    0.59901   1.00
H1       0.69090    0.73068    0.39979   1.00
C5       0.67880    0.72655    0.47772   1.00
H1       0.72025    0.80505    0.52691   1.00
H2       0.66060    0.70901    0.45744   1.00
H2       0.68569    0.70708    0.50269   1.00
H2       0.78710    0.65892    0.54256   1.00
H2       0.76750    0.67469    0.49731   1.00
N1       0.65664    0.76039    0.49143   1.00
C6       0.63952    0.78752    0.46927   1.00
C6       0.64872    0.76945    0.52846   1.00
C6       0.62087    0.81454    0.49241   1.00
C6       0.62671    0.80305    0.53005   1.00
H3       0.64073    0.78797    0.43803   1.00
H3       0.65859    0.75285    0.55300   1.00
H3       0.60478    0.83979    0.48287   1.00
H3       0.61613    0.81757    0.55575   1.00
N1       0.82517    0.69366    0.50857   1.00
C6       0.83714    0.69484    0.47154   1.00
C6       0.85621    0.70171    0.53073   1.00
C6       0.87618    0.70426    0.46995   1.00
C6       0.88831    0.70864    0.50759   1.00
H3       0.81858    0.68949    0.44700   1.00
H3       0.85564    0.70287    0.56197   1.00
H3       0.89384    0.70760    0.44425   1.00
H3       0.91732    0.71602    0.51713   1.00
C4       0.25018    0.25007    0.97915   1.00
C4       0.24982    0.24993    1.02085   1.00
C3a      0.26736    0.28123    0.95746   1.00
C3       0.28312    0.23875    1.04232   1.00
C3       0.23356    0.21913    0.95768   1.00
C3a      0.21597    0.26088    1.04254   1.00
C2       0.25003    0.24993    0.89488   1.00
C2       0.25003    0.24992    1.10512   1.00
C3       0.26694    0.28070    0.91595   1.00
C3       0.28321    0.23888    1.08363   1.00
C3       0.23341    0.21916    0.91637   1.00
C3       0.21664    0.26078    1.08405   1.00
C5       0.28585    0.31584    0.97772   1.00
H1       0.30937    0.23024    1.02691   1.00
H1       0.27985    0.30454    0.89979   1.00
H1       0.30943    0.23032    1.09901   1.00
H1       0.22016    0.19497    0.90099   1.00
H1       0.19090    0.26932    1.10021   1.00
C5       0.17880    0.27345    1.02228   1.00
H1       0.22025    0.19495    0.97309   1.00
H2       0.16060    0.29099    1.04256   1.00
H2       0.18569    0.29292    0.99731   1.00
H2       0.28710    0.34108    0.95744   1.00
H2       0.26750    0.32531    1.00269   1.00
N1       0.15664    0.23961    1.00857   1.00
C6       0.13952    0.21248    1.03073   1.00
C6       0.14872    0.23055    0.97154   1.00
C6       0.12087    0.18546    1.00759   1.00
C6       0.12671    0.19695    0.96995   1.00
H3       0.14073    0.21203    1.06197   1.00
H3       0.15859    0.24715    0.94700   1.00
H3       0.10478    0.16021    1.01713   1.00
H3       0.11613    0.18243    0.94425   1.00
N1       0.32517    0.30634    0.99143   1.00
C6       0.33714    0.30516    1.02846   1.00
C6       0.35621    0.29829    0.96927   1.00
C6       0.37618    0.29574    1.03005   1.00
C6       0.38831    0.29136    0.99241   1.00
H3       0.31858    0.31051    1.05300   1.00
H3       0.35564    0.29713    0.93803   1.00
H3       0.39384    0.29240    1.05575   1.00
H3       0.41732    0.28398    0.98287   1.00
C4       0.25007    0.47915    0.75018   1.00
C4       0.24993    0.52085    0.74982   1.00
C3a      0.28123    0.45746    0.76736   1.00
C3       0.23875    0.54232    0.78312   1.00
C3       0.21913    0.45768    0.73356   1.00
C3a      0.26088    0.54254    0.71597   1.00
C2       0.24993    0.39488    0.75003   1.00
C2       0.24992    0.60512    0.75003   1.00
C3       0.28070    0.41595    0.76694   1.00
C3       0.23888    0.58363    0.78321   1.00
C3       0.21916    0.41637    0.73341   1.00
C3       0.26078    0.58405    0.71664   1.00
C5       0.31584    0.47772    0.78585   1.00
H1       0.23024    0.52691    0.80937   1.00
H1       0.30454    0.39979    0.77985   1.00
H1       0.23032    0.59901    0.80943   1.00
H1       0.19497    0.40099    0.72016   1.00
H1       0.26932    0.60021    0.69090   1.00
C5       0.27345    0.52228    0.67880   1.00
H1       0.19495    0.47309    0.72025   1.00
H2       0.29099    0.54256    0.66060   1.00
H2       0.29292    0.49731    0.68569   1.00
H2       0.34108    0.45744    0.78710   1.00
H2       0.32531    0.50269    0.76750   1.00
N1       0.23961    0.50857    0.65664   1.00
C6       0.21248    0.53073    0.63952   1.00
C6       0.23055    0.47154    0.64872   1.00
C6       0.18546    0.50759    0.62087   1.00
C6       0.19695    0.46995    0.62671   1.00
H3       0.21203    0.56197    0.64073   1.00
H3       0.24715    0.44700    0.65859   1.00
H3       0.16021    0.51713    0.60478   1.00
H3       0.18243    0.44425    0.61613   1.00
N1       0.30634    0.49143    0.82517   1.00
C6       0.30516    0.52846    0.83714   1.00
C6       0.29829    0.46927    0.85621   1.00
C6       0.29574    0.53005    0.87618   1.00
C6       0.29136    0.49241    0.88831   1.00
H3       0.31051    0.55300    0.81858   1.00
H3       0.29713    0.43803    0.85564   1.00
H3       0.29240    0.55575    0.89384   1.00
H3       0.28398    0.48287    0.91732   1.00
C4       0.02085    0.25018    0.74993   1.00
C4       -0.02085   0.24982    0.75007   1.00
C3a      0.04254    0.26736    0.71877   1.00
C3       -0.04232   0.28312    0.76125   1.00
C3       0.04232    0.23356    0.78087   1.00
C3a      -0.04254   0.21597    0.73912   1.00
C2       0.10512    0.25003    0.75007   1.00
C2       -0.10512   0.25003    0.75008   1.00
C3       0.08405    0.26694    0.71930   1.00
C3       -0.08363   0.28321    0.76112   1.00
C3       0.08363    0.23341    0.78084   1.00
C3       -0.08405   0.21664    0.73922   1.00
C5       0.02228    0.28585    0.68416   1.00
H1       -0.02691   0.30937    0.76976   1.00
H1       0.10021    0.27985    0.69546   1.00
H1       -0.09901   0.30943    0.76968   1.00
H1       0.09901    0.22016    0.80503   1.00
H1       -0.10021   0.19090    0.73068   1.00
C5       -0.02228   0.17880    0.72655   1.00
H1       0.02691    0.22025    0.80505   1.00
H2       -0.04256   0.16060    0.70901   1.00
H2       0.00269    0.18569    0.70708   1.00
H2       0.04256    0.28710    0.65892   1.00
H2       -0.00269   0.26750    0.67469   1.00
N1       -0.00857   0.15664    0.76039   1.00
C6       -0.03073   0.13952    0.78752   1.00
C6       0.02846    0.14872    0.76945   1.00
C6       -0.00759   0.12087    0.81454   1.00
C6       0.03005    0.12671    0.80305   1.00
H3       -0.06197   0.14073    0.78797   1.00
H3       0.05300    0.15859    0.75285   1.00
H3       -0.01713   0.10478    0.83979   1.00
H3       0.05575    0.11613    0.81757   1.00
N1       0.00857    0.32517    0.69366   1.00
C6       -0.02846   0.33714    0.69484   1.00
C6       0.03073    0.35621    0.70171   1.00
C6       -0.03005   0.37618    0.70426   1.00
C6       0.00759    0.38831    0.70864   1.00
H3       -0.05300   0.31858    0.68949   1.00
H3       0.06197    0.35564    0.70287   1.00
H3       -0.05575   0.39384    0.70760   1.00
H3       0.01713    0.41732    0.71602   1.00
C4       0.47915    0.25018    0.75007   1.00
C4       0.52085    0.24982    0.74993   1.00
C3a      0.45746    0.26736    0.78123   1.00
C3       0.54232    0.28312    0.73875   1.00
C3       0.45768    0.23356    0.71913   1.00
C3a      0.54254    0.21597    0.76088   1.00
C2       0.39488    0.25003    0.74993   1.00
C2       0.60512    0.25003    0.74992   1.00
C3       0.41595    0.26694    0.78070   1.00
C3       0.58363    0.28321    0.73888   1.00
C3       0.41637    0.23341    0.71916   1.00
C3       0.58405    0.21664    0.76078   1.00
C5       0.47772    0.28585    0.81584   1.00
H1       0.52691    0.30937    0.73024   1.00
H1       0.39979    0.27985    0.80454   1.00
H1       0.59901    0.30943    0.73032   1.00
H1       0.40099    0.22016    0.69497   1.00
H1       0.60021    0.19090    0.76932   1.00
C5       0.52228    0.17880    0.77345   1.00
H1       0.47309    0.22025    0.69495   1.00
H2       0.54256    0.16060    0.79099   1.00
H2       0.49731    0.18569    0.79292   1.00
H2       0.45744    0.28710    0.84108   1.00
H2       0.50269    0.26750    0.82531   1.00
N1       0.50857    0.15664    0.73961   1.00
C6       0.53073    0.13952    0.71248   1.00
C6       0.47154    0.14872    0.73055   1.00
C6       0.50759    0.12087    0.68546   1.00
C6       0.46995    0.12671    0.69695   1.00
H3       0.56197    0.14073    0.71203   1.00
H3       0.44700    0.15859    0.74715   1.00
H3       0.51713    0.10478    0.66021   1.00
H3       0.44425    0.11613    0.68243   1.00
N1       0.49143    0.32517    0.80634   1.00
C6       0.52846    0.33714    0.80516   1.00
C6       0.46927    0.35621    0.79829   1.00
C6       0.53005    0.37618    0.79574   1.00
C6       0.49241    0.38831    0.79136   1.00
H3       0.55300    0.31858    0.81051   1.00
H3       0.43803    0.35564    0.79713   1.00
H3       0.55575    0.39384    0.79240   1.00
H3       0.48287    0.41732    0.78398   1.00
C4       0.24993    0.02085    0.75018   1.00
C4       0.25007    -0.02085   0.74982   1.00
C3a      0.21877    0.04254    0.76736   1.00
C3       0.26125    -0.04232   0.78312   1.00
C3       0.28087    0.04232    0.73356   1.00
C3a      0.23912    -0.04254   0.71597   1.00
C2       0.25007    0.10512    0.75003   1.00
C2       0.25008    -0.10512   0.75003   1.00
C3       0.21930    0.08405    0.76694   1.00
C3       0.26112    -0.08363   0.78321   1.00
C3       0.28084    0.08363    0.73341   1.00
C3       0.23922    -0.08405   0.71664   1.00
C5       0.18416    0.02228    0.78585   1.00
H1       0.26976    -0.02691   0.80937   1.00
H1       0.19546    0.10021    0.77985   1.00
H1       0.26968    -0.09901   0.80943   1.00
H1       0.30503    0.09901    0.72016   1.00
H1       0.23068    -0.10021   0.69090   1.00
C5       0.22655    -0.02228   0.67880   1.00
H1       0.30505    0.02691    0.72025   1.00
H2       0.20901    -0.04256   0.66060   1.00
H2       0.20708    0.00269    0.68569   1.00
H2       0.15892    0.04256    0.78710   1.00
H2       0.17469    -0.00269   0.76750   1.00
N1       0.26039    -0.00857   0.65664   1.00
C6       0.28752    -0.03073   0.63952   1.00
C6       0.26945    0.02846    0.64872   1.00
C6       0.31454    -0.00759   0.62087   1.00
C6       0.30305    0.03005    0.62671   1.00
H3       0.28797    -0.06197   0.64073   1.00
H3       0.25285    0.05300    0.65859   1.00
H3       0.33979    -0.01713   0.60478   1.00
H3       0.31757    0.05575    0.61613   1.00
N1       0.19366    0.00857    0.82517   1.00
C6       0.19484    -0.02846   0.83714   1.00
C6       0.20171    0.03073    0.85621   1.00
C6       0.20426    -0.03005   0.87618   1.00
C6       0.20864    0.00759    0.88831   1.00
H3       0.18949    -0.05300   0.81858   1.00
H3       0.20287    0.06197    0.85564   1.00
H3       0.20760    -0.05575   0.89384   1.00
H3       0.21602    0.01713    0.91732   1.00
C4       0.25018    0.24993    0.52085   1.00
C4       0.24982    0.25007    0.47915   1.00
C3a      0.26736    0.21877    0.54254   1.00
C3       0.28312    0.26125    0.45768   1.00
C3       0.23356    0.28087    0.54232   1.00
C3a      0.21597    0.23912    0.45746   1.00
C2       0.25003    0.25007    0.60512   1.00
C2       0.25003    0.25008    0.39488   1.00
C3       0.26694    0.21930    0.58405   1.00
C3       0.28321    0.26112    0.41637   1.00
C3       0.23341    0.28084    0.58363   1.00
C3       0.21664    0.23922    0.41595   1.00
C5       0.28585    0.18416    0.52228   1.00
H1       0.30937    0.26976    0.47309   1.00
H1       0.27985    0.19546    0.60021   1.00
H1       0.30943    0.26968    0.40099   1.00
H1       0.22016    0.30503    0.59901   1.00
H1       0.19090    0.23068    0.39979   1.00
C5       0.17880    0.22655    0.47772   1.00
H1       0.22025    0.30505    0.52691   1.00
H2       0.16060    0.20901    0.45744   1.00
H2       0.18569    0.20708    0.50269   1.00
H2       0.28710    0.15892    0.54256   1.00
H2       0.26750    0.17469    0.49731   1.00
N1       0.15664    0.26039    0.49143   1.00
C6       0.13952    0.28752    0.46927   1.00
C6       0.14872    0.26945    0.52846   1.00
C6       0.12087    0.31454    0.49241   1.00
C6       0.12671    0.30305    0.53005   1.00
H3       0.14073    0.28797    0.43803   1.00
H3       0.15859    0.25285    0.55300   1.00
H3       0.10478    0.33979    0.48287   1.00
H3       0.11613    0.31757    0.55575   1.00
N1       0.32517    0.19366    0.50857   1.00
C6       0.33714    0.19484    0.47154   1.00
C6       0.35621    0.20171    0.53073   1.00
C6       0.37618    0.20426    0.46995   1.00
C6       0.38831    0.20864    0.50759   1.00
H3       0.31858    0.18949    0.44700   1.00
H3       0.35564    0.20287    0.56197   1.00
H3       0.39384    0.20760    0.44425   1.00
H3       0.41732    0.21602    0.51713   1.00
C4       0.25018    0.75007    0.47915   1.00
C4       0.24982    0.74993    0.52085   1.00
C3a      0.26736    0.78123    0.45746   1.00
C3       0.28312    0.73875    0.54232   1.00
C3       0.23356    0.71913    0.45768   1.00
C3a      0.21597    0.76088    0.54254   1.00
C2       0.25003    0.74993    0.39488   1.00
C2       0.25003    0.74992    0.60512   1.00
C3       0.26694    0.78070    0.41595   1.00
C3       0.28321    0.73888    0.58363   1.00
C3       0.23341    0.71916    0.41637   1.00
C3       0.21664    0.76078    0.58405   1.00
C5       0.28585    0.81584    0.47772   1.00
H1       0.30937    0.73024    0.52691   1.00
H1       0.27985    0.80454    0.39979   1.00
H1       0.30943    0.73032    0.59901   1.00
H1       0.22016    0.69497    0.40099   1.00
H1       0.19090    0.76932    0.60021   1.00
C5       0.17880    0.77345    0.52228   1.00
H1       0.22025    0.69495    0.47309   1.00
H2       0.16060    0.79099    0.54256   1.00
H2       0.18569    0.79292    0.49731   1.00
H2       0.28710    0.84108    0.45744   1.00
H2       0.26750    0.82531    0.50269   1.00
N1       0.15664    0.73961    0.50857   1.00
C6       0.13952    0.71248    0.53073   1.00
C6       0.14872    0.73055    0.47154   1.00
C6       0.12087    0.68546    0.50759   1.00
C6       0.12671    0.69695    0.46995   1.00
H3       0.14073    0.71203    0.56197   1.00
H3       0.15859    0.74715    0.44700   1.00
H3       0.10478    0.66021    0.51713   1.00
H3       0.11613    0.68243    0.44425   1.00
N1       0.32517    0.80634    0.49143   1.00
C6       0.33714    0.80516    0.52846   1.00
C6       0.35621    0.79829    0.46927   1.00
C6       0.37618    0.79574    0.53005   1.00
C6       0.38831    0.79136    0.49241   1.00
H3       0.31858    0.81051    0.55300   1.00
H3       0.35564    0.79713    0.43803   1.00
H3       0.39384    0.79240    0.55575   1.00
H3       0.41732    0.78398    0.48287   1.00
C4       0.25007    0.97915    0.25018   1.00
C4       0.24993    1.02085    0.24982   1.00
C3a      0.28123    0.95746    0.26736   1.00
C3       0.23875    1.04232    0.28312   1.00
C3       0.21913    0.95768    0.23356   1.00
C3a      0.26088    1.04254    0.21597   1.00
C2       0.24993    0.89488    0.25003   1.00
C2       0.24992    1.10512    0.25003   1.00
C3       0.28070    0.91595    0.26694   1.00
C3       0.23888    1.08363    0.28321   1.00
C3       0.21916    0.91637    0.23341   1.00
C3       0.26078    1.08405    0.21664   1.00
C5       0.31584    0.97772    0.28585   1.00
H1       0.23024    1.02691    0.30937   1.00
H1       0.30454    0.89979    0.27985   1.00
H1       0.23032    1.09901    0.30943   1.00
H1       0.19497    0.90099    0.22016   1.00
H1       0.26932    1.10021    0.19090   1.00
C5       0.27345    1.02228    0.17880   1.00
H1       0.19495    0.97309    0.22025   1.00
H2       0.29099    1.04256    0.16060   1.00
H2       0.29292    0.99731    0.18569   1.00
H2       0.34108    0.95744    0.28710   1.00
H2       0.32531    1.00269    0.26750   1.00
N1       0.23961    1.00857    0.15664   1.00
C6       0.21248    1.03073    0.13952   1.00
C6       0.23055    0.97154    0.14872   1.00
C6       0.18546    1.00759    0.12087   1.00
C6       0.19695    0.96995    0.12671   1.00
H3       0.21203    1.06197    0.14073   1.00
H3       0.24715    0.94700    0.15859   1.00
H3       0.16021    1.01713    0.10478   1.00
H3       0.18243    0.94425    0.11613   1.00
N1       0.30634    0.99143    0.32517   1.00
C6       0.30516    1.02846    0.33714   1.00
C6       0.29829    0.96927    0.35621   1.00
C6       0.29574    1.03005    0.37618   1.00
C6       0.29136    0.99241    0.38831   1.00
H3       0.31051    1.05300    0.31858   1.00
H3       0.29713    0.93803    0.35564   1.00
H3       0.29240    1.05575    0.39384   1.00
H3       0.28398    0.98287    0.41732   1.00
C4       0.02085    0.75018    0.24993   1.00
C4       -0.02085   0.74982    0.25007   1.00
C3a      0.04254    0.76736    0.21877   1.00
C3       -0.04232   0.78312    0.26125   1.00
C3       0.04232    0.73356    0.28087   1.00
C3a      -0.04254   0.71597    0.23912   1.00
C2       0.10512    0.75003    0.25007   1.00
C2       -0.10512   0.75003    0.25008   1.00
C3       0.08405    0.76694    0.21930   1.00
C3       -0.08363   0.78321    0.26112   1.00
C3       0.08363    0.73341    0.28084   1.00
C3       -0.08405   0.71664    0.23922   1.00
C5       0.02228    0.78585    0.18416   1.00
H1       -0.02691   0.80937    0.26976   1.00
H1       0.10021    0.77985    0.19546   1.00
H1       -0.09901   0.80943    0.26968   1.00
H1       0.09901    0.72016    0.30503   1.00
H1       -0.10021   0.69090    0.23068   1.00
C5       -0.02228   0.67880    0.22655   1.00
H1       0.02691    0.72025    0.30505   1.00
H2       -0.04256   0.66060    0.20901   1.00
H2       0.00269    0.68569    0.20708   1.00
H2       0.04256    0.78710    0.15892   1.00
H2       -0.00269   0.76750    0.17469   1.00
N1       -0.00857   0.65664    0.26039   1.00
C6       -0.03073   0.63952    0.28752   1.00
C6       0.02846    0.64872    0.26945   1.00
C6       -0.00759   0.62087    0.31454   1.00
C6       0.03005    0.62671    0.30305   1.00
H3       -0.06197   0.64073    0.28797   1.00
H3       0.05300    0.65859    0.25285   1.00
H3       -0.01713   0.60478    0.33979   1.00
H3       0.05575    0.61613    0.31757   1.00
N1       0.00857    0.82517    0.19366   1.00
C6       -0.02846   0.83714    0.19484   1.00
C6       0.03073    0.85621    0.20171   1.00
C6       -0.03005   0.87618    0.20426   1.00
C6       0.00759    0.88831    0.20864   1.00
H3       -0.05300   0.81858    0.18949   1.00
H3       0.06197    0.85564    0.20287   1.00
H3       -0.05575   0.89384    0.20760   1.00
H3       0.01713    0.91732    0.21602   1.00
C4       0.47915    0.75018    0.25007   1.00
C4       0.52085    0.74982    0.24993   1.00
C3a      0.45746    0.76736    0.28123   1.00
C3       0.54232    0.78312    0.23875   1.00
C3       0.45768    0.73356    0.21913   1.00
C3a      0.54254    0.71597    0.26088   1.00
C2       0.39488    0.75003    0.24993   1.00
C2       0.60512    0.75003    0.24992   1.00
C3       0.41595    0.76694    0.28070   1.00
C3       0.58363    0.78321    0.23888   1.00
C3       0.41637    0.73341    0.21916   1.00
C3       0.58405    0.71664    0.26078   1.00
C5       0.47772    0.78585    0.31584   1.00
H1       0.52691    0.80937    0.23024   1.00
H1       0.39979    0.77985    0.30454   1.00
H1       0.59901    0.80943    0.23032   1.00
H1       0.40099    0.72016    0.19497   1.00
H1       0.60021    0.69090    0.26932   1.00
C5       0.52228    0.67880    0.27345   1.00
H1       0.47309    0.72025    0.19495   1.00
H2       0.54256    0.66060    0.29099   1.00
H2       0.49731    0.68569    0.29292   1.00
H2       0.45744    0.78710    0.34108   1.00
H2       0.50269    0.76750    0.32531   1.00
N1       0.50857    0.65664    0.23961   1.00
C6       0.53073    0.63952    0.21248   1.00
C6       0.47154    0.64872    0.23055   1.00
C6       0.50759    0.62087    0.18546   1.00
C6       0.46995    0.62671    0.19695   1.00
H3       0.56197    0.64073    0.21203   1.00
H3       0.44700    0.65859    0.24715   1.00
H3       0.51713    0.60478    0.16021   1.00
H3       0.44425    0.61613    0.18243   1.00
N1       0.49143    0.82517    0.30634   1.00
C6       0.52846    0.83714    0.30516   1.00
C6       0.46927    0.85621    0.29829   1.00
C6       0.53005    0.87618    0.29574   1.00
C6       0.49241    0.88831    0.29136   1.00
H3       0.55300    0.81858    0.31051   1.00
H3       0.43803    0.85564    0.29713   1.00
H3       0.55575    0.89384    0.29240   1.00
H3       0.48287    0.91732    0.28398   1.00
C4       0.24993    0.52085    0.25018   1.00
C4       0.25007    0.47915    0.24982   1.00
C3a      0.21877    0.54254    0.26736   1.00
C3       0.26125    0.45768    0.28312   1.00
C3       0.28087    0.54232    0.23356   1.00
C3a      0.23912    0.45746    0.21597   1.00
C2       0.25007    0.60512    0.25003   1.00
C2       0.25008    0.39488    0.25003   1.00
C3       0.21930    0.58405    0.26694   1.00
C3       0.26112    0.41637    0.28321   1.00
C3       0.28084    0.58363    0.23341   1.00
C3       0.23922    0.41595    0.21664   1.00
C5       0.18416    0.52228    0.28585   1.00
H1       0.26976    0.47309    0.30937   1.00
H1       0.19546    0.60021    0.27985   1.00
H1       0.26968    0.40099    0.30943   1.00
H1       0.30503    0.59901    0.22016   1.00
H1       0.23068    0.39979    0.19090   1.00
C5       0.22655    0.47772    0.17880   1.00
H1       0.30505    0.52691    0.22025   1.00
H2       0.20901    0.45744    0.16060   1.00
H2       0.20708    0.50269    0.18569   1.00
H2       0.15892    0.54256    0.28710   1.00
H2       0.17469    0.49731    0.26750   1.00
N1       0.26039    0.49143    0.15664   1.00
C6       0.28752    0.46927    0.13952   1.00
C6       0.26945    0.52846    0.14872   1.00
C6       0.31454    0.49241    0.12087   1.00
C6       0.30305    0.53005    0.12671   1.00
H3       0.28797    0.43803    0.14073   1.00
H3       0.25285    0.55300    0.15859   1.00
H3       0.33979    0.48287    0.10478   1.00
H3       0.31757    0.55575    0.11613   1.00
N1       0.19366    0.50857    0.32517   1.00
C6       0.19484    0.47154    0.33714   1.00
C6       0.20171    0.53073    0.35621   1.00
C6       0.20426    0.46995    0.37618   1.00
C6       0.20864    0.50759    0.38831   1.00
H3       0.18949    0.44700    0.31858   1.00
H3       0.20287    0.56197    0.35564   1.00
H3       0.20760    0.44425    0.39384   1.00
H3       0.21602    0.51713    0.41732   1.00
C4       0.25018    0.74993    0.02085   1.00
C4       0.24982    0.75007    -0.02085   1.00
C3a      0.26736    0.71877    0.04254   1.00
C3       0.28312    0.76125    -0.04232   1.00
C3       0.23356    0.78087    0.04232   1.00
C3a      0.21597    0.73912    -0.04254   1.00
C2       0.25003    0.75007    0.10512   1.00
C2       0.25003    0.75008    -0.10512   1.00
C3       0.26694    0.71930    0.08405   1.00
C3       0.28321    0.76112    -0.08363   1.00
C3       0.23341    0.78084    0.08363   1.00
C3       0.21664    0.73922    -0.08405   1.00
C5       0.28585    0.68416    0.02228   1.00
H1       0.30937    0.76976    -0.02691   1.00
H1       0.27985    0.69546    0.10021   1.00
H1       0.30943    0.76968    -0.09901   1.00
H1       0.22016    0.80503    0.09901   1.00
H1       0.19090    0.73068    -0.10021   1.00
C5       0.17880    0.72655    -0.02228   1.00
H1       0.22025    0.80505    0.02691   1.00
H2       0.16060    0.70901    -0.04256   1.00
H2       0.18569    0.70708    0.00269   1.00
H2       0.28710    0.65892    0.04256   1.00
H2       0.26750    0.67469    -0.00269   1.00
N1       0.15664    0.76039    -0.00857   1.00
C6       0.13952    0.78752    -0.03073   1.00
C6       0.14872    0.76945    0.02846   1.00
C6       0.12087    0.81454    -0.00759   1.00
C6       0.12671    0.80305    0.03005   1.00
H3       0.14073    0.78797    -0.06197   1.00
H3       0.15859    0.75285    0.05300   1.00
H3       0.10478    0.83979    -0.01713   1.00
H3       0.11613    0.81757    0.05575   1.00
N1       0.32517    0.69366    0.00857   1.00
C6       0.33714    0.69484    -0.02846   1.00
C6       0.35621    0.70171    0.03073   1.00
C6       0.37618    0.70426    -0.03005   1.00
C6       0.38831    0.70864    0.00759   1.00
H3       0.31858    0.68949    -0.05300   1.00
H3       0.35564    0.70287    0.06197   1.00
H3       0.39384    0.70760    -0.05575   1.00
H3       0.41732    0.71602    0.01713   1.00
C4       0.75018    0.25007    0.47915   1.00
C4       0.74982    0.24993    0.52085   1.00
C3a      0.76736    0.28123    0.45746   1.00
C3       0.78312    0.23875    0.54232   1.00
C3       0.73356    0.21913    0.45768   1.00
C3a      0.71597    0.26088    0.54254   1.00
C2       0.75003    0.24993    0.39488   1.00
C2       0.75003    0.24992    0.60512   1.00
C3       0.76694    0.28070    0.41595   1.00
C3       0.78321    0.23888    0.58363   1.00
C3       0.73341    0.21916    0.41637   1.00
C3       0.71664    0.26078    0.58405   1.00
C5       0.78585    0.31584    0.47772   1.00
H1       0.80937    0.23024    0.52691   1.00
H1       0.77985    0.30454    0.39979   1.00
H1       0.80943    0.23032    0.59901   1.00
H1       0.72016    0.19497    0.40099   1.00
H1       0.69090    0.26932    0.60021   1.00
C5       0.67880    0.27345    0.52228   1.00
H1       0.72025    0.19495    0.47309   1.00
H2       0.66060    0.29099    0.54256   1.00
H2       0.68569    0.29292    0.49731   1.00
H2       0.78710    0.34108    0.45744   1.00
H2       0.76750    0.32531    0.50269   1.00
N1       0.65664    0.23961    0.50857   1.00
C6       0.63952    0.21248    0.53073   1.00
C6       0.64872    0.23055    0.47154   1.00
C6       0.62087    0.18546    0.50759   1.00
C6       0.62671    0.19695    0.46995   1.00
H3       0.64073    0.21203    0.56197   1.00
H3       0.65859    0.24715    0.44700   1.00
H3       0.60478    0.16021    0.51713   1.00
H3       0.61613    0.18243    0.44425   1.00
N1       0.82517    0.30634    0.49143   1.00
C6       0.83714    0.30516    0.52846   1.00
C6       0.85621    0.29829    0.46927   1.00
C6       0.87618    0.29574    0.53005   1.00
C6       0.88831    0.29136    0.49241   1.00
H3       0.81858    0.31051    0.55300   1.00
H3       0.85564    0.29713    0.43803   1.00
H3       0.89384    0.29240    0.55575   1.00
H3       0.91732    0.28398    0.48287   1.00
C4       0.75007    0.47915    0.25018   1.00
C4       0.74993    0.52085    0.24982   1.00
C3a      0.78123    0.45746    0.26736   1.00
C3       0.73875    0.54232    0.28312   1.00
C3       0.71913    0.45768    0.23356   1.00
C3a      0.76088    0.54254    0.21597   1.00
C2       0.74993    0.39488    0.25003   1.00
C2       0.74992    0.60512    0.25003   1.00
C3       0.78070    0.41595    0.26694   1.00
C3       0.73888    0.58363    0.28321   1.00
C3       0.71916    0.41637    0.23341   1.00
C3       0.76078    0.58405    0.21664   1.00
C5       0.81584    0.47772    0.28585   1.00
H1       0.73024    0.52691    0.30937   1.00
H1       0.80454    0.39979    0.27985   1.00
H1       0.73032    0.59901    0.30943   1.00
H1       0.69497    0.40099    0.22016   1.00
H1       0.76932    0.60021    0.19090   1.00
C5       0.77345    0.52228    0.17880   1.00
H1       0.69495    0.47309    0.22025   1.00
H2       0.79099    0.54256    0.16060   1.00
H2       0.79292    0.49731    0.18569   1.00
H2       0.84108    0.45744    0.28710   1.00
H2       0.82531    0.50269    0.26750   1.00
N1       0.73961    0.50857    0.15664   1.00
C6       0.71248    0.53073    0.13952   1.00
C6       0.73055    0.47154    0.14872   1.00
C6       0.68546    0.50759    0.12087   1.00
C6       0.69695    0.46995    0.12671   1.00
H3       0.71203    0.56197    0.14073   1.00
H3       0.74715    0.44700    0.15859   1.00
H3       0.66021    0.51713    0.10478   1.00
H3       0.68243    0.44425    0.11613   1.00
N1       0.80634    0.49143    0.32517   1.00
C6       0.80516    0.52846    0.33714   1.00
C6       0.79829    0.46927    0.35621   1.00
C6       0.79574    0.53005    0.37618   1.00
C6       0.79136    0.49241    0.38831   1.00
H3       0.81051    0.55300    0.31858   1.00
H3       0.79713    0.43803    0.35564   1.00
H3       0.79240    0.55575    0.39384   1.00
H3       0.78398    0.48287    0.41732   1.00
C4       0.52085    0.25018    0.24993   1.00
C4       0.47915    0.24982    0.25007   1.00
C3a      0.54254    0.26736    0.21877   1.00
C3       0.45768    0.28312    0.26125   1.00
C3       0.54232    0.23356    0.28087   1.00
C3a      0.45746    0.21597    0.23912   1.00
C2       0.60512    0.25003    0.25007   1.00
C2       0.39488    0.25003    0.25008   1.00
C3       0.58405    0.26694    0.21930   1.00
C3       0.41637    0.28321    0.26112   1.00
C3       0.58363    0.23341    0.28084   1.00
C3       0.41595    0.21664    0.23922   1.00
C5       0.52228    0.28585    0.18416   1.00
H1       0.47309    0.30937    0.26976   1.00
H1       0.60021    0.27985    0.19546   1.00
H1       0.40099    0.30943    0.26968   1.00
H1       0.59901    0.22016    0.30503   1.00
H1       0.39979    0.19090    0.23068   1.00
C5       0.47772    0.17880    0.22655   1.00
H1       0.52691    0.22025    0.30505   1.00
H2       0.45744    0.16060    0.20901   1.00
H2       0.50269    0.18569    0.20708   1.00
H2       0.54256    0.28710    0.15892   1.00
H2       0.49731    0.26750    0.17469   1.00
N1       0.49143    0.15664    0.26039   1.00
C6       0.46927    0.13952    0.28752   1.00
C6       0.52846    0.14872    0.26945   1.00
C6       0.49241    0.12087    0.31454   1.00
C6       0.53005    0.12671    0.30305   1.00
H3       0.43803    0.14073    0.28797   1.00
H3       0.55300    0.15859    0.25285   1.00
H3       0.48287    0.10478    0.33979   1.00
H3       0.55575    0.11613    0.31757   1.00
N1       0.50857    0.32517    0.19366   1.00
C6       0.47154    0.33714    0.19484   1.00
C6       0.53073    0.35621    0.20171   1.00
C6       0.46995    0.37618    0.20426   1.00
C6       0.50759    0.38831    0.20864   1.00
H3       0.44700    0.31858    0.18949   1.00
H3       0.56197    0.35564    0.20287   1.00
H3       0.44425    0.39384    0.20760   1.00
H3       0.51713    0.41732    0.21602   1.00
C4       0.97915    0.25018    0.25007   1.00
C4       1.02085    0.24982    0.24993   1.00
C3a      0.95746    0.26736    0.28123   1.00
C3       1.04232    0.28312    0.23875   1.00
C3       0.95768    0.23356    0.21913   1.00
C3a      1.04254    0.21597    0.26088   1.00
C2       0.89488    0.25003    0.24993   1.00
C2       1.10512    0.25003    0.24992   1.00
C3       0.91595    0.26694    0.28070   1.00
C3       1.08363    0.28321    0.23888   1.00
C3       0.91637    0.23341    0.21916   1.00
C3       1.08405    0.21664    0.26078   1.00
C5       0.97772    0.28585    0.31584   1.00
H1       1.02691    0.30937    0.23024   1.00
H1       0.89979    0.27985    0.30454   1.00
H1       1.09901    0.30943    0.23032   1.00
H1       0.90099    0.22016    0.19497   1.00
H1       1.10021    0.19090    0.26932   1.00
C5       1.02228    0.17880    0.27345   1.00
H1       0.97309    0.22025    0.19495   1.00
H2       1.04256    0.16060    0.29099   1.00
H2       0.99731    0.18569    0.29292   1.00
H2       0.95744    0.28710    0.34108   1.00
H2       1.00269    0.26750    0.32531   1.00
N1       1.00857    0.15664    0.23961   1.00
C6       1.03073    0.13952    0.21248   1.00
C6       0.97154    0.14872    0.23055   1.00
C6       1.00759    0.12087    0.18546   1.00
C6       0.96995    0.12671    0.19695   1.00
H3       1.06197    0.14073    0.21203   1.00
H3       0.94700    0.15859    0.24715   1.00
H3       1.01713    0.10478    0.16021   1.00
H3       0.94425    0.11613    0.18243   1.00
N1       0.99143    0.32517    0.30634   1.00
C6       1.02846    0.33714    0.30516   1.00
C6       0.96927    0.35621    0.29829   1.00
C6       1.03005    0.37618    0.29574   1.00
C6       0.99241    0.38831    0.29136   1.00
H3       1.05300    0.31858    0.31051   1.00
H3       0.93803    0.35564    0.29713   1.00
H3       1.05575    0.39384    0.29240   1.00
H3       0.98287    0.41732    0.28398   1.00
C4       0.74993    0.02085    0.25018   1.00
C4       0.75007    -0.02085   0.24982   1.00
C3a      0.71877    0.04254    0.26736   1.00
C3       0.76125    -0.04232   0.28312   1.00
C3       0.78087    0.04232    0.23356   1.00
C3a      0.73912    -0.04254   0.21597   1.00
C2       0.75007    0.10512    0.25003   1.00
C2       0.75008    -0.10512   0.25003   1.00
C3       0.71930    0.08405    0.26694   1.00
C3       0.76112    -0.08363   0.28321   1.00
C3       0.78084    0.08363    0.23341   1.00
C3       0.73922    -0.08405   0.21664   1.00
C5       0.68416    0.02228    0.28585   1.00
H1       0.76976    -0.02691   0.30937   1.00
H1       0.69546    0.10021    0.27985   1.00
H1       0.76968    -0.09901   0.30943   1.00
H1       0.80503    0.09901    0.22016   1.00
H1       0.73068    -0.10021   0.19090   1.00
C5       0.72655    -0.02228   0.17880   1.00
H1       0.80505    0.02691    0.22025   1.00
H2       0.70901    -0.04256   0.16060   1.00
H2       0.70708    0.00269    0.18569   1.00
H2       0.65892    0.04256    0.28710   1.00
H2       0.67469    -0.00269   0.26750   1.00
N1       0.76039    -0.00857   0.15664   1.00
C6       0.78752    -0.03073   0.13952   1.00
C6       0.76945    0.02846    0.14872   1.00
C6       0.81454    -0.00759   0.12087   1.00
C6       0.80305    0.03005    0.12671   1.00
H3       0.78797    -0.06197   0.14073   1.00
H3       0.75285    0.05300    0.15859   1.00
H3       0.83979    -0.01713   0.10478   1.00
H3       0.81757    0.05575    0.11613   1.00
N1       0.69366    0.00857    0.32517   1.00
C6       0.69484    -0.02846   0.33714   1.00
C6       0.70171    0.03073    0.35621   1.00
C6       0.70426    -0.03005   0.37618   1.00
C6       0.70864    0.00759    0.38831   1.00
H3       0.68949    -0.05300   0.31858   1.00
H3       0.70287    0.06197    0.35564   1.00
H3       0.70760    -0.05575   0.39384   1.00
H3       0.71602    0.01713    0.41732   1.00
C4       0.75018    0.24993    0.02085   1.00
C4       0.74982    0.25007    -0.02085   1.00
C3a      0.76736    0.21877    0.04254   1.00
C3       0.78312    0.26125    -0.04232   1.00
C3       0.73356    0.28087    0.04232   1.00
C3a      0.71597    0.23912    -0.04254   1.00
C2       0.75003    0.25007    0.10512   1.00
C2       0.75003    0.25008    -0.10512   1.00
C3       0.76694    0.21930    0.08405   1.00
C3       0.78321    0.26112    -0.08363   1.00
C3       0.73341    0.28084    0.08363   1.00
C3       0.71664    0.23922    -0.08405   1.00
C5       0.78585    0.18416    0.02228   1.00
H1       0.80937    0.26976    -0.02691   1.00
H1       0.77985    0.19546    0.10021   1.00
H1       0.80943    0.26968    -0.09901   1.00
H1       0.72016    0.30503    0.09901   1.00
H1       0.69090    0.23068    -0.10021   1.00
C5       0.67880    0.22655    -0.02228   1.00
H1       0.72025    0.30505    0.02691   1.00
H2       0.66060    0.20901    -0.04256   1.00
H2       0.68569    0.20708    0.00269   1.00
H2       0.78710    0.15892    0.04256   1.00
H2       0.76750    0.17469    -0.00269   1.00
N1       0.65664    0.26039    -0.00857   1.00
C6       0.63952    0.28752    -0.03073   1.00
C6       0.64872    0.26945    0.02846   1.00
C6       0.62087    0.31454    -0.00759   1.00
C6       0.62671    0.30305    0.03005   1.00
H3       0.64073    0.28797    -0.06197   1.00
H3       0.65859    0.25285    0.05300   1.00
H3       0.60478    0.33979    -0.01713   1.00
H3       0.61613    0.31757    0.05575   1.00
N1       0.82517    0.19366    0.00857   1.00
C6       0.83714    0.19484    -0.02846   1.00
C6       0.85621    0.20171    0.03073   1.00
C6       0.87618    0.20426    -0.03005   1.00
C6       0.88831    0.20864    0.00759   1.00
H3       0.81858    0.18949    -0.05300   1.00
H3       0.85564    0.20287    0.06197   1.00
H3       0.89384    0.20760    -0.05575   1.00
H3       0.91732    0.21602    0.01713   1.00
C4       0.91518    0.91507    1.14415   1.00
C4       0.91482    0.91493    1.18585   1.00
C3a      0.93236    0.94623    1.12246   1.00
C3       0.94812    0.90375    1.20732   1.00
C3       0.89856    0.88413    1.12268   1.00
C3a      0.88097    0.92588    1.20754   1.00
C2       0.91503    0.91493    1.05988   1.00
C2       0.91503    0.91492    1.27012   1.00
C3       0.93194    0.94570    1.08095   1.00
C3       0.94821    0.90388    1.24863   1.00
C3       0.89841    0.88416    1.08137   1.00
C3       0.88164    0.92578    1.24905   1.00
C5       0.95085    0.98084    1.14272   1.00
H1       0.97437    0.89524    1.19191   1.00
H1       0.94485    0.96954    1.06479   1.00
H1       0.97443    0.89532    1.26401   1.00
H1       0.88516    0.85997    1.06599   1.00
H1       0.85590    0.93432    1.26521   1.00
C5       0.84380    0.93845    1.18728   1.00
H1       0.88525    0.85995    1.13809   1.00
H2       0.82560    0.95599    1.20756   1.00
H2       0.85069    0.95792    1.16231   1.00
H2       0.95210    1.00608    1.12244   1.00
H2       0.93250    0.99031    1.16769   1.00
N1       0.82164    0.90461    1.17357   1.00
C6       0.80452    0.87748    1.19573   1.00
C6       0.81372    0.89555    1.13654   1.00
C6       0.78587    0.85046    1.17259   1.00
C6       0.79171    0.86195    1.13495   1.00
H3       0.80573    0.87703    1.22697   1.00
H3       0.82359    0.91215    1.11200   1.00
H3       0.76978    0.82521    1.18213   1.00
H3       0.78113    0.84743    1.10925   1.00
N1       0.99017    0.97134    1.15643   1.00
C6       1.00214    0.97016    1.19346   1.00
C6       1.02121    0.96329    1.13427   1.00
C6       1.04118    0.96074    1.19505   1.00
C6       1.05331    0.95636    1.15741   1.00
H3       0.98358    0.97551    1.21800   1.00
H3       1.02064    0.96213    1.10303   1.00
H3       1.05884    0.95740    1.22075   1.00
H3       1.08232    0.94898    1.14787   1.00
C4       0.91507    1.14415    0.91518   1.00
C4       0.91493    1.18585    0.91482   1.00
C3a      0.94623    1.12246    0.93236   1.00
C3       0.90375    1.20732    0.94812   1.00
C3       0.88413    1.12268    0.89856   1.00
C3a      0.92588    1.20754    0.88097   1.00
C2       0.91493    1.05988    0.91503   1.00
C2       0.91492    1.27012    0.91503   1.00
C3       0.94570    1.08095    0.93194   1.00
C3       0.90388    1.24863    0.94821   1.00
C3       0.88416    1.08137    0.89841   1.00
C3       0.92578    1.24905    0.88164   1.00
C5       0.98084    1.14272    0.95085   1.00
H1       0.89524    1.19191    0.97437   1.00
H1       0.96954    1.06479    0.94485   1.00
H1       0.89532    1.26401    0.97443   1.00
H1       0.85997    1.06599    0.88516   1.00
H1       0.93432    1.26521    0.85590   1.00
C5       0.93845    1.18728    0.84380   1.00
H1       0.85995    1.13809    0.88525   1.00
H2       0.95599    1.20756    0.82560   1.00
H2       0.95792    1.16231    0.85069   1.00
H2       1.00608    1.12244    0.95210   1.00
H2       0.99031    1.16769    0.93250   1.00
N1       0.90461    1.17357    0.82164   1.00
C6       0.87748    1.19573    0.80452   1.00
C6       0.89555    1.13654    0.81372   1.00
C6       0.85046    1.17259    0.78587   1.00
C6       0.86195    1.13495    0.79171   1.00
H3       0.87703    1.22697    0.80573   1.00
H3       0.91215    1.11200    0.82359   1.00
H3       0.82521    1.18213    0.76978   1.00
H3       0.84743    1.10925    0.78113   1.00
N1       0.97134    1.15643    0.99017   1.00
C6       0.97016    1.19346    1.00214   1.00
C6       0.96329    1.13427    1.02121   1.00
C6       0.96074    1.19505    1.04118   1.00
C6       0.95636    1.15741    1.05331   1.00
H3       0.97551    1.21800    0.98358   1.00
H3       0.96213    1.10303    1.02064   1.00
H3       0.95740    1.22075    1.05884   1.00
H3       0.94898    1.14787    1.08232   1.00
C4       0.68585    0.91518    0.91493   1.00
C4       0.64415    0.91482    0.91507   1.00
C3a      0.70754    0.93236    0.88377   1.00
C3       0.62268    0.94812    0.92625   1.00
C3       0.70732    0.89856    0.94587   1.00
C3a      0.62246    0.88097    0.90412   1.00
C2       0.77012    0.91503    0.91507   1.00
C2       0.55988    0.91503    0.91508   1.00
C3       0.74905    0.93194    0.88430   1.00
C3       0.58137    0.94821    0.92612   1.00
C3       0.74863    0.89841    0.94584   1.00
C3       0.58095    0.88164    0.90422   1.00
C5       0.68728    0.95085    0.84916   1.00
H1       0.63809    0.97437    0.93476   1.00
H1       0.76521    0.94485    0.86046   1.00
H1       0.56599    0.97443    0.93468   1.00
H1       0.76401    0.88516    0.97003   1.00
H1       0.56479    0.85590    0.89568   1.00
C5       0.64272    0.84380    0.89155   1.00
H1       0.69191    0.88525    0.97005   1.00
H2       0.62244    0.82560    0.87401   1.00
H2       0.66769    0.85069    0.87208   1.00
H2       0.70756    0.95210    0.82392   1.00
H2       0.66231    0.93250    0.83969   1.00
N1       0.65643    0.82164    0.92539   1.00
C6       0.63427    0.80452    0.95252   1.00
C6       0.69346    0.81372    0.93445   1.00
C6       0.65741    0.78587    0.97954   1.00
C6       0.69505    0.79171    0.96805   1.00
H3       0.60303    0.80573    0.95297   1.00
H3       0.71800    0.82359    0.91785   1.00
H3       0.64787    0.76978    1.00479   1.00
H3       0.72075    0.78113    0.98257   1.00
N1       0.67357    0.99017    0.85866   1.00
C6       0.63654    1.00214    0.85984   1.00
C6       0.69573    1.02121    0.86671   1.00
C6       0.63495    1.04118    0.86926   1.00
C6       0.67259    1.05331    0.87364   1.00
H3       0.61200    0.98358    0.85449   1.00
H3       0.72697    1.02064    0.86787   1.00
H3       0.60925    1.05884    0.87260   1.00
H3       0.68213    1.08232    0.88102   1.00
C4       1.14415    0.91518    0.91507   1.00
C4       1.18585    0.91482    0.91493   1.00
C3a      1.12246    0.93236    0.94623   1.00
C3       1.20732    0.94812    0.90375   1.00
C3       1.12268    0.89856    0.88413   1.00
C3a      1.20754    0.88097    0.92588   1.00
C2       1.05988    0.91503    0.91493   1.00
C2       1.27012    0.91503    0.91492   1.00
C3       1.08095    0.93194    0.94570   1.00
C3       1.24863    0.94821    0.90388   1.00
C3       1.08137    0.89841    0.88416   1.00
C3       1.24905    0.88164    0.92578   1.00
C5       1.14272    0.95085    0.98084   1.00
H1       1.19191    0.97437    0.89524   1.00
H1       1.06479    0.94485    0.96954   1.00
H1       1.26401    0.97443    0.89532   1.00
H1       1.06599    0.88516    0.85997   1.00
H1       1.26521    0.85590    0.93432   1.00
C5       1.18728    0.84380    0.93845   1.00
H1       1.13809    0.88525    0.85995   1.00
H2       1.20756    0.82560    0.95599   1.00
H2       1.16231    0.85069    0.95792   1.00
H2       1.12244    0.95210    1.00608   1.00
H2       1.16769    0.93250    0.99031   1.00
N1       1.17357    0.82164    0.90461   1.00
C6       1.19573    0.80452    0.87748   1.00
C6       1.13654    0.81372    0.89555   1.00
C6       1.17259    0.78587    0.85046   1.00
C6       1.13495    0.79171    0.86195   1.00
H3       1.22697    0.80573    0.87703   1.00
H3       1.11200    0.82359    0.91215   1.00
H3       1.18213    0.76978    0.82521   1.00
H3       1.10925    0.78113    0.84743   1.00
N1       1.15643    0.99017    0.97134   1.00
C6       1.19346    1.00214    0.97016   1.00
C6       1.13427    1.02121    0.96329   1.00
C6       1.19505    1.04118    0.96074   1.00
C6       1.15741    1.05331    0.95636   1.00
H3       1.21800    0.98358    0.97551   1.00
H3       1.10303    1.02064    0.96213   1.00
H3       1.22075    1.05884    0.95740   1.00
H3       1.14787    1.08232    0.94898   1.00
C4       0.91493    0.68585    0.91518   1.00
C4       0.91507    0.64415    0.91482   1.00
C3a      0.88377    0.70754    0.93236   1.00
C3       0.92625    0.62268    0.94812   1.00
C3       0.94587    0.70732    0.89856   1.00
C3a      0.90412    0.62246    0.88097   1.00
C2       0.91507    0.77012    0.91503   1.00
C2       0.91508    0.55988    0.91503   1.00
C3       0.88430    0.74905    0.93194   1.00
C3       0.92612    0.58137    0.94821   1.00
C3       0.94584    0.74863    0.89841   1.00
C3       0.90422    0.58095    0.88164   1.00
C5       0.84916    0.68728    0.95085   1.00
H1       0.93476    0.63809    0.97437   1.00
H1       0.86046    0.76521    0.94485   1.00
H1       0.93468    0.56599    0.97443   1.00
H1       0.97003    0.76401    0.88516   1.00
H1       0.89568    0.56479    0.85590   1.00
C5       0.89155    0.64272    0.84380   1.00
H1       0.97005    0.69191    0.88525   1.00
H2       0.87401    0.62244    0.82560   1.00
H2       0.87208    0.66769    0.85069   1.00
H2       0.82392    0.70756    0.95210   1.00
H2       0.83969    0.66231    0.93250   1.00
N1       0.92539    0.65643    0.82164   1.00
C6       0.95252    0.63427    0.80452   1.00
C6       0.93445    0.69346    0.81372   1.00
C6       0.97954    0.65741    0.78587   1.00
C6       0.96805    0.69505    0.79171   1.00
H3       0.95297    0.60303    0.80573   1.00
H3       0.91785    0.71800    0.82359   1.00
H3       1.00479    0.64787    0.76978   1.00
H3       0.98257    0.72075    0.78113   1.00
N1       0.85866    0.67357    0.99017   1.00
C6       0.85984    0.63654    1.00214   1.00
C6       0.86671    0.69573    1.02121   1.00
C6       0.86926    0.63495    1.04118   1.00
C6       0.87364    0.67259    1.05331   1.00
H3       0.85449    0.61200    0.98358   1.00
H3       0.86787    0.72697    1.02064   1.00
H3       0.87260    0.60925    1.05884   1.00
H3       0.88102    0.68213    1.08232   1.00
C4       0.91518    0.91493    0.68585   1.00
C4       0.91482    0.91507    0.64415   1.00
C3a      0.93236    0.88377    0.70754   1.00
C3       0.94812    0.92625    0.62268   1.00
C3       0.89856    0.94587    0.70732   1.00
C3a      0.88097    0.90412    0.62246   1.00
C2       0.91503    0.91507    0.77012   1.00
C2       0.91503    0.91508    0.55988   1.00
C3       0.93194    0.88430    0.74905   1.00
C3       0.94821    0.92612    0.58137   1.00
C3       0.89841    0.94584    0.74863   1.00
C3       0.88164    0.90422    0.58095   1.00
C5       0.95085    0.84916    0.68728   1.00
H1       0.97437    0.93476    0.63809   1.00
H1       0.94485    0.86046    0.76521   1.00
H1       0.97443    0.93468    0.56599   1.00
H1       0.88516    0.97003    0.76401   1.00
H1       0.85590    0.89568    0.56479   1.00
C5       0.84380    0.89155    0.64272   1.00
H1       0.88525    0.97005    0.69191   1.00
H2       0.82560    0.87401    0.62244   1.00
H2       0.85069    0.87208    0.66769   1.00
H2       0.95210    0.82392    0.70756   1.00
H2       0.93250    0.83969    0.66231   1.00
N1       0.82164    0.92539    0.65643   1.00
C6       0.80452    0.95252    0.63427   1.00
C6       0.81372    0.93445    0.69346   1.00
C6       0.78587    0.97954    0.65741   1.00
C6       0.79171    0.96805    0.69505   1.00
H3       0.80573    0.95297    0.60303   1.00
H3       0.82359    0.91785    0.71800   1.00
H3       0.76978    1.00479    0.64787   1.00
H3       0.78113    0.98257    0.72075   1.00
N1       0.99017    0.85866    0.67357   1.00
C6       1.00214    0.85984    0.63654   1.00
C6       1.02121    0.86671    0.69573   1.00
C6       1.04118    0.86926    0.63495   1.00
C6       1.05331    0.87364    0.67259   1.00
H3       0.98358    0.85449    0.61200   1.00
H3       1.02064    0.86787    0.72697   1.00
H3       1.05884    0.87260    0.60925   1.00
H3       1.08232    0.88102    0.68213   1.00
C4       0.41518    0.41507    1.14415   1.00
C4       0.41482    0.41493    1.18585   1.00
C3a      0.43236    0.44623    1.12246   1.00
C3       0.44812    0.40375    1.20732   1.00
C3       0.39856    0.38413    1.12268   1.00
C3a      0.38097    0.42588    1.20754   1.00
C2       0.41503    0.41493    1.05988   1.00
C2       0.41503    0.41492    1.27012   1.00
C3       0.43194    0.44570    1.08095   1.00
C3       0.44821    0.40388    1.24863   1.00
C3       0.39841    0.38416    1.08137   1.00
C3       0.38164    0.42578    1.24905   1.00
C5       0.45085    0.48084    1.14272   1.00
H1       0.47437    0.39524    1.19191   1.00
H1       0.44485    0.46954    1.06479   1.00
H1       0.47443    0.39532    1.26401   1.00
H1       0.38516    0.35997    1.06599   1.00
H1       0.35590    0.43432    1.26521   1.00
C5       0.34380    0.43845    1.18728   1.00
H1       0.38525    0.35995    1.13809   1.00
H2       0.32560    0.45599    1.20756   1.00
H2       0.35069    0.45792    1.16231   1.00
H2       0.45210    0.50608    1.12244   1.00
H2       0.43250    0.49031    1.16769   1.00
N1       0.32164    0.40461    1.17357   1.00
C6       0.30452    0.37748    1.19573   1.00
C6       0.31372    0.39555    1.13654   1.00
C6       0.28587    0.35046    1.17259   1.00
C6       0.29171    0.36195    1.13495   1.00
H3       0.30573    0.37703    1.22697   1.00
H3       0.32359    0.41215    1.11200   1.00
H3       0.26978    0.32521    1.18213   1.00
H3       0.28113    0.34743    1.10925   1.00
N1       0.49017    0.47134    1.15643   1.00
C6       0.50214    0.47016    1.19346   1.00
C6       0.52121    0.46329    1.13427   1.00
C6       0.54118    0.46074    1.19505   1.00
C6       0.55331    0.45636    1.15741   1.00
H3       0.48358    0.47551    1.21800   1.00
H3       0.52064    0.46213    1.10303   1.00
H3       0.55884    0.45740    1.22075   1.00
H3       0.58232    0.44898    1.14787   1.00
C4       0.41507    0.64415    0.91518   1.00
C4       0.41493    0.68585    0.91482   1.00
C3a      0.44623    0.62246    0.93236   1.00
C3       0.40375    0.70732    0.94812   1.00
C3       0.38413    0.62268    0.89856   1.00
C3a      0.42588    0.70754    0.88097   1.00
C2       0.41493    0.55988    0.91503   1.00
C2       0.41492    0.77012    0.91503   1.00
C3       0.44570    0.58095    0.93194   1.00
C3       0.40388    0.74863    0.94821   1.00
C3       0.38416    0.58137    0.89841   1.00
C3       0.42578    0.74905    0.88164   1.00
C5       0.48084    0.64272    0.95085   1.00
H1       0.39524    0.69191    0.97437   1.00
H1       0.46954    0.56479    0.94485   1.00
H1       0.39532    0.76401    0.97443   1.00
H1       0.35997    0.56599    0.88516   1.00
H1       0.43432    0.76521    0.85590   1.00
C5       0.43845    0.68728    0.84380   1.00
H1       0.35995    0.63809    0.88525   1.00
H2       0.45599    0.70756    0.82560   1.00
H2       0.45792    0.66231    0.85069   1.00
H2       0.50608    0.62244    0.95210   1.00
H2       0.49031    0.66769    0.93250   1.00
N1       0.40461    0.67357    0.82164   1.00
C6       0.37748    0.69573    0.80452   1.00
C6       0.39555    0.63654    0.81372   1.00
C6       0.35046    0.67259    0.78587   1.00
C6       0.36195    0.63495    0.79171   1.00
H3       0.37703    0.72697    0.80573   1.00
H3       0.41215    0.61200    0.82359   1.00
H3       0.32521    0.68213    0.76978   1.00
H3       0.34743    0.60925    0.78113   1.00
N1       0.47134    0.65643    0.99017   1.00
C6       0.47016    0.69346    1.00214   1.00
C6       0.46329    0.63427    1.02121   1.00
C6       0.46074    0.69505    1.04118   1.00
C6       0.45636    0.65741    1.05331   1.00
H3       0.47551    0.71800    0.98358   1.00
H3       0.46213    0.60303    1.02064   1.00
H3       0.45740    0.72075    1.05884   1.00
H3       0.44898    0.64787    1.08232   1.00
C4       0.18585    0.41518    0.91493   1.00
C4       0.14415    0.41482    0.91507   1.00
C3a      0.20754    0.43236    0.88377   1.00
C3       0.12268    0.44812    0.92625   1.00
C3       0.20732    0.39856    0.94587   1.00
C3a      0.12246    0.38097    0.90412   1.00
C2       0.27012    0.41503    0.91507   1.00
C2       0.05988    0.41503    0.91508   1.00
C3       0.24905    0.43194    0.88430   1.00
C3       0.08137    0.44821    0.92612   1.00
C3       0.24863    0.39841    0.94584   1.00
C3       0.08095    0.38164    0.90422   1.00
C5       0.18728    0.45085    0.84916   1.00
H1       0.13809    0.47437    0.93476   1.00
H1       0.26521    0.44485    0.86046   1.00
H1       0.06599    0.47443    0.93468   1.00
H1       0.26401    0.38516    0.97003   1.00
H1       0.06479    0.35590    0.89568   1.00
C5       0.14272    0.34380    0.89155   1.00
H1       0.19191    0.38525    0.97005   1.00
H2       0.12244    0.32560    0.87401   1.00
H2       0.16769    0.35069    0.87208   1.00
H2       0.20756    0.45210    0.82392   1.00
H2       0.16231    0.43250    0.83969   1.00
N1       0.15643    0.32164    0.92539   1.00
C6       0.13427    0.30452    0.95252   1.00
C6       0.19346    0.31372    0.93445   1.00
C6       0.15741    0.28587    0.97954   1.00
C6       0.19505    0.29171    0.96805   1.00
H3       0.10303    0.30573    0.95297   1.00
H3       0.21800    0.32359    0.91785   1.00
H3       0.14787    0.26978    1.00479   1.00
H3       0.22075    0.28113    0.98257   1.00
N1       0.17357    0.49017    0.85866   1.00
C6       0.13654    0.50214    0.85984   1.00
C6       0.19573    0.52121    0.86671   1.00
C6       0.13495    0.54118    0.86926   1.00
C6       0.17259    0.55331    0.87364   1.00
H3       0.11200    0.48358    0.85449   1.00
H3       0.22697    0.52064    0.86787   1.00
H3       0.10925    0.55884    0.87260   1.00
H3       0.18213    0.58232    0.88102   1.00
C4       0.64415    0.41518    0.91507   1.00
C4       0.68585    0.41482    0.91493   1.00
C3a      0.62246    0.43236    0.94623   1.00
C3       0.70732    0.44812    0.90375   1.00
C3       0.62268    0.39856    0.88413   1.00
C3a      0.70754    0.38097    0.92588   1.00
C2       0.55988    0.41503    0.91493   1.00
C2       0.77012    0.41503    0.91492   1.00
C3       0.58095    0.43194    0.94570   1.00
C3       0.74863    0.44821    0.90388   1.00
C3       0.58137    0.39841    0.88416   1.00
C3       0.74905    0.38164    0.92578   1.00
C5       0.64272    0.45085    0.98084   1.00
H1       0.69191    0.47437    0.89524   1.00
H1       0.56479    0.44485    0.96954   1.00
H1       0.76401    0.47443    0.89532   1.00
H1       0.56599    0.38516    0.85997   1.00
H1       0.76521    0.35590    0.93432   1.00
C5       0.68728    0.34380    0.93845   1.00
H1       0.63809    0.38525    0.85995   1.00
H2       0.70756    0.32560    0.95599   1.00
H2       0.66231    0.35069    0.95792   1.00
H2       0.62244    0.45210    1.00608   1.00
H2       0.66769    0.43250    0.99031   1.00
N1       0.67357    0.32164    0.90461   1.00
C6       0.69573    0.30452    0.87748   1.00
C6       0.63654    0.31372    0.89555   1.00
C6       0.67259    0.28587    0.85046   1.00
C6       0.63495    0.29171    0.86195   1.00
H3       0.72697    0.30573    0.87703   1.00
H3       0.61200    0.32359    0.91215   1.00
H3       0.68213    0.26978    0.82521   1.00
H3       0.60925    0.28113    0.84743   1.00
N1       0.65643    0.49017    0.97134   1.00
C6       0.69346    0.50214    0.97016   1.00
C6       0.63427    0.52121    0.96329   1.00
C6       0.69505    0.54118    0.96074   1.00
C6       0.65741    0.55331    0.95636   1.00
H3       0.71800    0.48358    0.97551   1.00
H3       0.60303    0.52064    0.96213   1.00
H3       0.72075    0.55884    0.95740   1.00
H3       0.64787    0.58232    0.94898   1.00
C4       0.41493    0.18585    0.91518   1.00
C4       0.41507    0.14415    0.91482   1.00
C3a      0.38377    0.20754    0.93236   1.00
C3       0.42625    0.12268    0.94812   1.00
C3       0.44587    0.20732    0.89856   1.00
C3a      0.40412    0.12246    0.88097   1.00
C2       0.41507    0.27012    0.91503   1.00
C2       0.41508    0.05988    0.91503   1.00
C3       0.38430    0.24905    0.93194   1.00
C3       0.42612    0.08137    0.94821   1.00
C3       0.44584    0.24863    0.89841   1.00
C3       0.40422    0.08095    0.88164   1.00
C5       0.34916    0.18728    0.95085   1.00
H1       0.43476    0.13809    0.97437   1.00
H1       0.36046    0.26521    0.94485   1.00
H1       0.43468    0.06599    0.97443   1.00
H1       0.47003    0.26401    0.88516   1.00
H1       0.39568    0.06479    0.85590   1.00
C5       0.39155    0.14272    0.84380   1.00
H1       0.47005    0.19191    0.88525   1.00
H2       0.37401    0.12244    0.82560   1.00
H2       0.37208    0.16769    0.85069   1.00
H2       0.32392    0.20756    0.95210   1.00
H2       0.33969    0.16231    0.93250   1.00
N1       0.42539    0.15643    0.82164   1.00
C6       0.45252    0.13427    0.80452   1.00
C6       0.43445    0.19346    0.81372   1.00
C6       0.47954    0.15741    0.78587   1.00
C6       0.46805    0.19505    0.79171   1.00
H3       0.45297    0.10303    0.80573   1.00
H3       0.41785    0.21800    0.82359   1.00
H3       0.50479    0.14787    0.76978   1.00
H3       0.48257    0.22075    0.78113   1.00
N1       0.35866    0.17357    0.99017   1.00
C6       0.35984    0.13654    1.00214   1.00
C6       0.36671    0.19573    1.02121   1.00
C6       0.36926    0.13495    1.04118   1.00
C6       0.37364    0.17259    1.05331   1.00
H3       0.35449    0.11200    0.98358   1.00
H3       0.36787    0.22697    1.02064   1.00
H3       0.37260    0.10925    1.05884   1.00
H3       0.38102    0.18213    1.08232   1.00
C4       0.41518    0.41493    0.68585   1.00
C4       0.41482    0.41507    0.64415   1.00
C3a      0.43236    0.38377    0.70754   1.00
C3       0.44812    0.42625    0.62268   1.00
C3       0.39856    0.44587    0.70732   1.00
C3a      0.38097    0.40412    0.62246   1.00
C2       0.41503    0.41507    0.77012   1.00
C2       0.41503    0.41508    0.55988   1.00
C3       0.43194    0.38430    0.74905   1.00
C3       0.44821    0.42612    0.58137   1.00
C3       0.39841    0.44584    0.74863   1.00
C3       0.38164    0.40422    0.58095   1.00
C5       0.45085    0.34916    0.68728   1.00
H1       0.47437    0.43476    0.63809   1.00
H1       0.44485    0.36046    0.76521   1.00
H1       0.47443    0.43468    0.56599   1.00
H1       0.38516    0.47003    0.76401   1.00
H1       0.35590    0.39568    0.56479   1.00
C5       0.34380    0.39155    0.64272   1.00
H1       0.38525    0.47005    0.69191   1.00
H2       0.32560    0.37401    0.62244   1.00
H2       0.35069    0.37208    0.66769   1.00
H2       0.45210    0.32392    0.70756   1.00
H2       0.43250    0.33969    0.66231   1.00
N1       0.32164    0.42539    0.65643   1.00
C6       0.30452    0.45252    0.63427   1.00
C6       0.31372    0.43445    0.69346   1.00
C6       0.28587    0.47954    0.65741   1.00
C6       0.29171    0.46805    0.69505   1.00
H3       0.30573    0.45297    0.60303   1.00
H3       0.32359    0.41785    0.71800   1.00
H3       0.26978    0.50479    0.64787   1.00
H3       0.28113    0.48257    0.72075   1.00
N1       0.49017    0.35866    0.67357   1.00
C6       0.50214    0.35984    0.63654   1.00
C6       0.52121    0.36671    0.69573   1.00
C6       0.54118    0.36926    0.63495   1.00
C6       0.55331    0.37364    0.67259   1.00
H3       0.48358    0.35449    0.61200   1.00
H3       0.52064    0.36787    0.72697   1.00
H3       0.55884    0.37260    0.60925   1.00
H3       0.58232    0.38102    0.68213   1.00
C4       0.41518    0.91507    0.64415   1.00
C4       0.41482    0.91493    0.68585   1.00
C3a      0.43236    0.94623    0.62246   1.00
C3       0.44812    0.90375    0.70732   1.00
C3       0.39856    0.88413    0.62268   1.00
C3a      0.38097    0.92588    0.70754   1.00
C2       0.41503    0.91493    0.55988   1.00
C2       0.41503    0.91492    0.77012   1.00
C3       0.43194    0.94570    0.58095   1.00
C3       0.44821    0.90388    0.74863   1.00
C3       0.39841    0.88416    0.58137   1.00
C3       0.38164    0.92578    0.74905   1.00
C5       0.45085    0.98084    0.64272   1.00
H1       0.47437    0.89524    0.69191   1.00
H1       0.44485    0.96954    0.56479   1.00
H1       0.47443    0.89532    0.76401   1.00
H1       0.38516    0.85997    0.56599   1.00
H1       0.35590    0.93432    0.76521   1.00
C5       0.34380    0.93845    0.68728   1.00
H1       0.38525    0.85995    0.63809   1.00
H2       0.32560    0.95599    0.70756   1.00
H2       0.35069    0.95792    0.66231   1.00
H2       0.45210    1.00608    0.62244   1.00
H2       0.43250    0.99031    0.66769   1.00
N1       0.32164    0.90461    0.67357   1.00
C6       0.30452    0.87748    0.69573   1.00
C6       0.31372    0.89555    0.63654   1.00
C6       0.28587    0.85046    0.67259   1.00
C6       0.29171    0.86195    0.63495   1.00
H3       0.30573    0.87703    0.72697   1.00
H3       0.32359    0.91215    0.61200   1.00
H3       0.26978    0.82521    0.68213   1.00
H3       0.28113    0.84743    0.60925   1.00
N1       0.49017    0.97134    0.65643   1.00
C6       0.50214    0.97016    0.69346   1.00
C6       0.52121    0.96329    0.63427   1.00
C6       0.54118    0.96074    0.69505   1.00
C6       0.55331    0.95636    0.65741   1.00
H3       0.48358    0.97551    0.71800   1.00
H3       0.52064    0.96213    0.60303   1.00
H3       0.55884    0.95740    0.72075   1.00
H3       0.58232    0.94898    0.64787   1.00
C4       0.41507    1.14415    0.41518   1.00
C4       0.41493    1.18585    0.41482   1.00
C3a      0.44623    1.12246    0.43236   1.00
C3       0.40375    1.20732    0.44812   1.00
C3       0.38413    1.12268    0.39856   1.00
C3a      0.42588    1.20754    0.38097   1.00
C2       0.41493    1.05988    0.41503   1.00
C2       0.41492    1.27012    0.41503   1.00
C3       0.44570    1.08095    0.43194   1.00
C3       0.40388    1.24863    0.44821   1.00
C3       0.38416    1.08137    0.39841   1.00
C3       0.42578    1.24905    0.38164   1.00
C5       0.48084    1.14272    0.45085   1.00
H1       0.39524    1.19191    0.47437   1.00
H1       0.46954    1.06479    0.44485   1.00
H1       0.39532    1.26401    0.47443   1.00
H1       0.35997    1.06599    0.38516   1.00
H1       0.43432    1.26521    0.35590   1.00
C5       0.43845    1.18728    0.34380   1.00
H1       0.35995    1.13809    0.38525   1.00
H2       0.45599    1.20756    0.32560   1.00
H2       0.45792    1.16231    0.35069   1.00
H2       0.50608    1.12244    0.45210   1.00
H2       0.49031    1.16769    0.43250   1.00
N1       0.40461    1.17357    0.32164   1.00
C6       0.37748    1.19573    0.30452   1.00
C6       0.39555    1.13654    0.31372   1.00
C6       0.35046    1.17259    0.28587   1.00
C6       0.36195    1.13495    0.29171   1.00
H3       0.37703    1.22697    0.30573   1.00
H3       0.41215    1.11200    0.32359   1.00
H3       0.32521    1.18213    0.26978   1.00
H3       0.34743    1.10925    0.28113   1.00
N1       0.47134    1.15643    0.49017   1.00
C6       0.47016    1.19346    0.50214   1.00
C6       0.46329    1.13427    0.52121   1.00
C6       0.46074    1.19505    0.54118   1.00
C6       0.45636    1.15741    0.55331   1.00
H3       0.47551    1.21800    0.48358   1.00
H3       0.46213    1.10303    0.52064   1.00
H3       0.45740    1.22075    0.55884   1.00
H3       0.44898    1.14787    0.58232   1.00
C4       0.18585    0.91518    0.41493   1.00
C4       0.14415    0.91482    0.41507   1.00
C3a      0.20754    0.93236    0.38377   1.00
C3       0.12268    0.94812    0.42625   1.00
C3       0.20732    0.89856    0.44587   1.00
C3a      0.12246    0.88097    0.40412   1.00
C2       0.27012    0.91503    0.41507   1.00
C2       0.05988    0.91503    0.41508   1.00
C3       0.24905    0.93194    0.38430   1.00
C3       0.08137    0.94821    0.42612   1.00
C3       0.24863    0.89841    0.44584   1.00
C3       0.08095    0.88164    0.40422   1.00
C5       0.18728    0.95085    0.34916   1.00
H1       0.13809    0.97437    0.43476   1.00
H1       0.26521    0.94485    0.36046   1.00
H1       0.06599    0.97443    0.43468   1.00
H1       0.26401    0.88516    0.47003   1.00
H1       0.06479    0.85590    0.39568   1.00
C5       0.14272    0.84380    0.39155   1.00
H1       0.19191    0.88525    0.47005   1.00
H2       0.12244    0.82560    0.37401   1.00
H2       0.16769    0.85069    0.37208   1.00
H2       0.20756    0.95210    0.32392   1.00
H2       0.16231    0.93250    0.33969   1.00
N1       0.15643    0.82164    0.42539   1.00
C6       0.13427    0.80452    0.45252   1.00
C6       0.19346    0.81372    0.43445   1.00
C6       0.15741    0.78587    0.47954   1.00
C6       0.19505    0.79171    0.46805   1.00
H3       0.10303    0.80573    0.45297   1.00
H3       0.21800    0.82359    0.41785   1.00
H3       0.14787    0.76978    0.50479   1.00
H3       0.22075    0.78113    0.48257   1.00
N1       0.17357    0.99017    0.35866   1.00
C6       0.13654    1.00214    0.35984   1.00
C6       0.19573    1.02121    0.36671   1.00
C6       0.13495    1.04118    0.36926   1.00
C6       0.17259    1.05331    0.37364   1.00
H3       0.11200    0.98358    0.35449   1.00
H3       0.22697    1.02064    0.36787   1.00
H3       0.10925    1.05884    0.37260   1.00
H3       0.18213    1.08232    0.38102   1.00
C4       0.64415    0.91518    0.41507   1.00
C4       0.68585    0.91482    0.41493   1.00
C3a      0.62246    0.93236    0.44623   1.00
C3       0.70732    0.94812    0.40375   1.00
C3       0.62268    0.89856    0.38413   1.00
C3a      0.70754    0.88097    0.42588   1.00
C2       0.55988    0.91503    0.41493   1.00
C2       0.77012    0.91503    0.41492   1.00
C3       0.58095    0.93194    0.44570   1.00
C3       0.74863    0.94821    0.40388   1.00
C3       0.58137    0.89841    0.38416   1.00
C3       0.74905    0.88164    0.42578   1.00
C5       0.64272    0.95085    0.48084   1.00
H1       0.69191    0.97437    0.39524   1.00
H1       0.56479    0.94485    0.46954   1.00
H1       0.76401    0.97443    0.39532   1.00
H1       0.56599    0.88516    0.35997   1.00
H1       0.76521    0.85590    0.43432   1.00
C5       0.68728    0.84380    0.43845   1.00
H1       0.63809    0.88525    0.35995   1.00
H2       0.70756    0.82560    0.45599   1.00
H2       0.66231    0.85069    0.45792   1.00
H2       0.62244    0.95210    0.50608   1.00
H2       0.66769    0.93250    0.49031   1.00
N1       0.67357    0.82164    0.40461   1.00
C6       0.69573    0.80452    0.37748   1.00
C6       0.63654    0.81372    0.39555   1.00
C6       0.67259    0.78587    0.35046   1.00
C6       0.63495    0.79171    0.36195   1.00
H3       0.72697    0.80573    0.37703   1.00
H3       0.61200    0.82359    0.41215   1.00
H3       0.68213    0.76978    0.32521   1.00
H3       0.60925    0.78113    0.34743   1.00
N1       0.65643    0.99017    0.47134   1.00
C6       0.69346    1.00214    0.47016   1.00
C6       0.63427    1.02121    0.46329   1.00
C6       0.69505    1.04118    0.46074   1.00
C6       0.65741    1.05331    0.45636   1.00
H3       0.71800    0.98358    0.47551   1.00
H3       0.60303    1.02064    0.46213   1.00
H3       0.72075    1.05884    0.45740   1.00
H3       0.64787    1.08232    0.44898   1.00
C4       0.41493    0.68585    0.41518   1.00
C4       0.41507    0.64415    0.41482   1.00
C3a      0.38377    0.70754    0.43236   1.00
C3       0.42625    0.62268    0.44812   1.00
C3       0.44587    0.70732    0.39856   1.00
C3a      0.40412    0.62246    0.38097   1.00
C2       0.41507    0.77012    0.41503   1.00
C2       0.41508    0.55988    0.41503   1.00
C3       0.38430    0.74905    0.43194   1.00
C3       0.42612    0.58137    0.44821   1.00
C3       0.44584    0.74863    0.39841   1.00
C3       0.40422    0.58095    0.38164   1.00
C5       0.34916    0.68728    0.45085   1.00
H1       0.43476    0.63809    0.47437   1.00
H1       0.36046    0.76521    0.44485   1.00
H1       0.43468    0.56599    0.47443   1.00
H1       0.47003    0.76401    0.38516   1.00
H1       0.39568    0.56479    0.35590   1.00
C5       0.39155    0.64272    0.34380   1.00
H1       0.47005    0.69191    0.38525   1.00
H2       0.37401    0.62244    0.32560   1.00
H2       0.37208    0.66769    0.35069   1.00
H2       0.32392    0.70756    0.45210   1.00
H2       0.33969    0.66231    0.43250   1.00
N1       0.42539    0.65643    0.32164   1.00
C6       0.45252    0.63427    0.30452   1.00
C6       0.43445    0.69346    0.31372   1.00
C6       0.47954    0.65741    0.28587   1.00
C6       0.46805    0.69505    0.29171   1.00
H3       0.45297    0.60303    0.30573   1.00
H3       0.41785    0.71800    0.32359   1.00
H3       0.50479    0.64787    0.26978   1.00
H3       0.48257    0.72075    0.28113   1.00
N1       0.35866    0.67357    0.49017   1.00
C6       0.35984    0.63654    0.50214   1.00
C6       0.36671    0.69573    0.52121   1.00
C6       0.36926    0.63495    0.54118   1.00
C6       0.37364    0.67259    0.55331   1.00
H3       0.35449    0.61200    0.48358   1.00
H3       0.36787    0.72697    0.52064   1.00
H3       0.37260    0.60925    0.55884   1.00
H3       0.38102    0.68213    0.58232   1.00
C4       0.41518    0.91493    0.18585   1.00
C4       0.41482    0.91507    0.14415   1.00
C3a      0.43236    0.88377    0.20754   1.00
C3       0.44812    0.92625    0.12268   1.00
C3       0.39856    0.94587    0.20732   1.00
C3a      0.38097    0.90412    0.12246   1.00
C2       0.41503    0.91507    0.27012   1.00
C2       0.41503    0.91508    0.05988   1.00
C3       0.43194    0.88430    0.24905   1.00
C3       0.44821    0.92612    0.08137   1.00
C3       0.39841    0.94584    0.24863   1.00
C3       0.38164    0.90422    0.08095   1.00
C5       0.45085    0.84916    0.18728   1.00
H1       0.47437    0.93476    0.13809   1.00
H1       0.44485    0.86046    0.26521   1.00
H1       0.47443    0.93468    0.06599   1.00
H1       0.38516    0.97003    0.26401   1.00
H1       0.35590    0.89568    0.06479   1.00
C5       0.34380    0.89155    0.14272   1.00
H1       0.38525    0.97005    0.19191   1.00
H2       0.32560    0.87401    0.12244   1.00
H2       0.35069    0.87208    0.16769   1.00
H2       0.45210    0.82392    0.20756   1.00
H2       0.43250    0.83969    0.16231   1.00
N1       0.32164    0.92539    0.15643   1.00
C6       0.30452    0.95252    0.13427   1.00
C6       0.31372    0.93445    0.19346   1.00
C6       0.28587    0.97954    0.15741   1.00
C6       0.29171    0.96805    0.19505   1.00
H3       0.30573    0.95297    0.10303   1.00
H3       0.32359    0.91785    0.21800   1.00
H3       0.26978    1.00479    0.14787   1.00
H3       0.28113    0.98257    0.22075   1.00
N1       0.49017    0.85866    0.17357   1.00
C6       0.50214    0.85984    0.13654   1.00
C6       0.52121    0.86671    0.19573   1.00
C6       0.54118    0.86926    0.13495   1.00
C6       0.55331    0.87364    0.17259   1.00
H3       0.48358    0.85449    0.11200   1.00
H3       0.52064    0.86787    0.22697   1.00
H3       0.55884    0.87260    0.10925   1.00
H3       0.58232    0.88102    0.18213   1.00
C4       0.91518    0.41507    0.64415   1.00
C4       0.91482    0.41493    0.68585   1.00
C3a      0.93236    0.44623    0.62246   1.00
C3       0.94812    0.40375    0.70732   1.00
C3       0.89856    0.38413    0.62268   1.00
C3a      0.88097    0.42588    0.70754   1.00
C2       0.91503    0.41493    0.55988   1.00
C2       0.91503    0.41492    0.77012   1.00
C3       0.93194    0.44570    0.58095   1.00
C3       0.94821    0.40388    0.74863   1.00
C3       0.89841    0.38416    0.58137   1.00
C3       0.88164    0.42578    0.74905   1.00
C5       0.95085    0.48084    0.64272   1.00
H1       0.97437    0.39524    0.69191   1.00
H1       0.94485    0.46954    0.56479   1.00
H1       0.97443    0.39532    0.76401   1.00
H1       0.88516    0.35997    0.56599   1.00
H1       0.85590    0.43432    0.76521   1.00
C5       0.84380    0.43845    0.68728   1.00
H1       0.88525    0.35995    0.63809   1.00
H2       0.82560    0.45599    0.70756   1.00
H2       0.85069    0.45792    0.66231   1.00
H2       0.95210    0.50608    0.62244   1.00
H2       0.93250    0.49031    0.66769   1.00
N1       0.82164    0.40461    0.67357   1.00
C6       0.80452    0.37748    0.69573   1.00
C6       0.81372    0.39555    0.63654   1.00
C6       0.78587    0.35046    0.67259   1.00
C6       0.79171    0.36195    0.63495   1.00
H3       0.80573    0.37703    0.72697   1.00
H3       0.82359    0.41215    0.61200   1.00
H3       0.76978    0.32521    0.68213   1.00
H3       0.78113    0.34743    0.60925   1.00
N1       0.99017    0.47134    0.65643   1.00
C6       1.00214    0.47016    0.69346   1.00
C6       1.02121    0.46329    0.63427   1.00
C6       1.04118    0.46074    0.69505   1.00
C6       1.05331    0.45636    0.65741   1.00
H3       0.98358    0.47551    0.71800   1.00
H3       1.02064    0.46213    0.60303   1.00
H3       1.05884    0.45740    0.72075   1.00
H3       1.08232    0.44898    0.64787   1.00
C4       0.91507    0.64415    0.41518   1.00
C4       0.91493    0.68585    0.41482   1.00
C3a      0.94623    0.62246    0.43236   1.00
C3       0.90375    0.70732    0.44812   1.00
C3       0.88413    0.62268    0.39856   1.00
C3a      0.92588    0.70754    0.38097   1.00
C2       0.91493    0.55988    0.41503   1.00
C2       0.91492    0.77012    0.41503   1.00
C3       0.94570    0.58095    0.43194   1.00
C3       0.90388    0.74863    0.44821   1.00
C3       0.88416    0.58137    0.39841   1.00
C3       0.92578    0.74905    0.38164   1.00
C5       0.98084    0.64272    0.45085   1.00
H1       0.89524    0.69191    0.47437   1.00
H1       0.96954    0.56479    0.44485   1.00
H1       0.89532    0.76401    0.47443   1.00
H1       0.85997    0.56599    0.38516   1.00
H1       0.93432    0.76521    0.35590   1.00
C5       0.93845    0.68728    0.34380   1.00
H1       0.85995    0.63809    0.38525   1.00
H2       0.95599    0.70756    0.32560   1.00
H2       0.95792    0.66231    0.35069   1.00
H2       1.00608    0.62244    0.45210   1.00
H2       0.99031    0.66769    0.43250   1.00
N1       0.90461    0.67357    0.32164   1.00
C6       0.87748    0.69573    0.30452   1.00
C6       0.89555    0.63654    0.31372   1.00
C6       0.85046    0.67259    0.28587   1.00
C6       0.86195    0.63495    0.29171   1.00
H3       0.87703    0.72697    0.30573   1.00
H3       0.91215    0.61200    0.32359   1.00
H3       0.82521    0.68213    0.26978   1.00
H3       0.84743    0.60925    0.28113   1.00
N1       0.97134    0.65643    0.49017   1.00
C6       0.97016    0.69346    0.50214   1.00
C6       0.96329    0.63427    0.52121   1.00
C6       0.96074    0.69505    0.54118   1.00
C6       0.95636    0.65741    0.55331   1.00
H3       0.97551    0.71800    0.48358   1.00
H3       0.96213    0.60303    0.52064   1.00
H3       0.95740    0.72075    0.55884   1.00
H3       0.94898    0.64787    0.58232   1.00
C4       0.68585    0.41518    0.41493   1.00
C4       0.64415    0.41482    0.41507   1.00
C3a      0.70754    0.43236    0.38377   1.00
C3       0.62268    0.44812    0.42625   1.00
C3       0.70732    0.39856    0.44587   1.00
C3a      0.62246    0.38097    0.40412   1.00
C2       0.77012    0.41503    0.41507   1.00
C2       0.55988    0.41503    0.41508   1.00
C3       0.74905    0.43194    0.38430   1.00
C3       0.58137    0.44821    0.42612   1.00
C3       0.74863    0.39841    0.44584   1.00
C3       0.58095    0.38164    0.40422   1.00
C5       0.68728    0.45085    0.34916   1.00
H1       0.63809    0.47437    0.43476   1.00
H1       0.76521    0.44485    0.36046   1.00
H1       0.56599    0.47443    0.43468   1.00
H1       0.76401    0.38516    0.47003   1.00
H1       0.56479    0.35590    0.39568   1.00
C5       0.64272    0.34380    0.39155   1.00
H1       0.69191    0.38525    0.47005   1.00
H2       0.62244    0.32560    0.37401   1.00
H2       0.66769    0.35069    0.37208   1.00
H2       0.70756    0.45210    0.32392   1.00
H2       0.66231    0.43250    0.33969   1.00
N1       0.65643    0.32164    0.42539   1.00
C6       0.63427    0.30452    0.45252   1.00
C6       0.69346    0.31372    0.43445   1.00
C6       0.65741    0.28587    0.47954   1.00
C6       0.69505    0.29171    0.46805   1.00
H3       0.60303    0.30573    0.45297   1.00
H3       0.71800    0.32359    0.41785   1.00
H3       0.64787    0.26978    0.50479   1.00
H3       0.72075    0.28113    0.48257   1.00
N1       0.67357    0.49017    0.35866   1.00
C6       0.63654    0.50214    0.35984   1.00
C6       0.69573    0.52121    0.36671   1.00
C6       0.63495    0.54118    0.36926   1.00
C6       0.67259    0.55331    0.37364   1.00
H3       0.61200    0.48358    0.35449   1.00
H3       0.72697    0.52064    0.36787   1.00
H3       0.60925    0.55884    0.37260   1.00
H3       0.68213    0.58232    0.38102   1.00
C4       1.14415    0.41518    0.41507   1.00
C4       1.18585    0.41482    0.41493   1.00
C3a      1.12246    0.43236    0.44623   1.00
C3       1.20732    0.44812    0.40375   1.00
C3       1.12268    0.39856    0.38413   1.00
C3a      1.20754    0.38097    0.42588   1.00
C2       1.05988    0.41503    0.41493   1.00
C2       1.27012    0.41503    0.41492   1.00
C3       1.08095    0.43194    0.44570   1.00
C3       1.24863    0.44821    0.40388   1.00
C3       1.08137    0.39841    0.38416   1.00
C3       1.24905    0.38164    0.42578   1.00
C5       1.14272    0.45085    0.48084   1.00
H1       1.19191    0.47437    0.39524   1.00
H1       1.06479    0.44485    0.46954   1.00
H1       1.26401    0.47443    0.39532   1.00
H1       1.06599    0.38516    0.35997   1.00
H1       1.26521    0.35590    0.43432   1.00
C5       1.18728    0.34380    0.43845   1.00
H1       1.13809    0.38525    0.35995   1.00
H2       1.20756    0.32560    0.45599   1.00
H2       1.16231    0.35069    0.45792   1.00
H2       1.12244    0.45210    0.50608   1.00
H2       1.16769    0.43250    0.49031   1.00
N1       1.17357    0.32164    0.40461   1.00
C6       1.19573    0.30452    0.37748   1.00
C6       1.13654    0.31372    0.39555   1.00
C6       1.17259    0.28587    0.35046   1.00
C6       1.13495    0.29171    0.36195   1.00
H3       1.22697    0.30573    0.37703   1.00
H3       1.11200    0.32359    0.41215   1.00
H3       1.18213    0.26978    0.32521   1.00
H3       1.10925    0.28113    0.34743   1.00
N1       1.15643    0.49017    0.47134   1.00
C6       1.19346    0.50214    0.47016   1.00
C6       1.13427    0.52121    0.46329   1.00
C6       1.19505    0.54118    0.46074   1.00
C6       1.15741    0.55331    0.45636   1.00
H3       1.21800    0.48358    0.47551   1.00
H3       1.10303    0.52064    0.46213   1.00
H3       1.22075    0.55884    0.45740   1.00
H3       1.14787    0.58232    0.44898   1.00
C4       0.91493    0.18585    0.41518   1.00
C4       0.91507    0.14415    0.41482   1.00
C3a      0.88377    0.20754    0.43236   1.00
C3       0.92625    0.12268    0.44812   1.00
C3       0.94587    0.20732    0.39856   1.00
C3a      0.90412    0.12246    0.38097   1.00
C2       0.91507    0.27012    0.41503   1.00
C2       0.91508    0.05988    0.41503   1.00
C3       0.88430    0.24905    0.43194   1.00
C3       0.92612    0.08137    0.44821   1.00
C3       0.94584    0.24863    0.39841   1.00
C3       0.90422    0.08095    0.38164   1.00
C5       0.84916    0.18728    0.45085   1.00
H1       0.93476    0.13809    0.47437   1.00
H1       0.86046    0.26521    0.44485   1.00
H1       0.93468    0.06599    0.47443   1.00
H1       0.97003    0.26401    0.38516   1.00
H1       0.89568    0.06479    0.35590   1.00
C5       0.89155    0.14272    0.34380   1.00
H1       0.97005    0.19191    0.38525   1.00
H2       0.87401    0.12244    0.32560   1.00
H2       0.87208    0.16769    0.35069   1.00
H2       0.82392    0.20756    0.45210   1.00
H2       0.83969    0.16231    0.43250   1.00
N1       0.92539    0.15643    0.32164   1.00
C6       0.95252    0.13427    0.30452   1.00
C6       0.93445    0.19346    0.31372   1.00
C6       0.97954    0.15741    0.28587   1.00
C6       0.96805    0.19505    0.29171   1.00
H3       0.95297    0.10303    0.30573   1.00
H3       0.91785    0.21800    0.32359   1.00
H3       1.00479    0.14787    0.26978   1.00
H3       0.98257    0.22075    0.28113   1.00
N1       0.85866    0.17357    0.49017   1.00
C6       0.85984    0.13654    0.50214   1.00
C6       0.86671    0.19573    0.52121   1.00
C6       0.86926    0.13495    0.54118   1.00
C6       0.87364    0.17259    0.55331   1.00
H3       0.85449    0.11200    0.48358   1.00
H3       0.86787    0.22697    0.52064   1.00
H3       0.87260    0.10925    0.55884   1.00
H3       0.88102    0.18213    0.58232   1.00
C4       0.91518    0.41493    0.18585   1.00
C4       0.91482    0.41507    0.14415   1.00
C3a      0.93236    0.38377    0.20754   1.00
C3       0.94812    0.42625    0.12268   1.00
C3       0.89856    0.44587    0.20732   1.00
C3a      0.88097    0.40412    0.12246   1.00
C2       0.91503    0.41507    0.27012   1.00
C2       0.91503    0.41508    0.05988   1.00
C3       0.93194    0.38430    0.24905   1.00
C3       0.94821    0.42612    0.08137   1.00
C3       0.89841    0.44584    0.24863   1.00
C3       0.88164    0.40422    0.08095   1.00
C5       0.95085    0.34916    0.18728   1.00
H1       0.97437    0.43476    0.13809   1.00
H1       0.94485    0.36046    0.26521   1.00
H1       0.97443    0.43468    0.06599   1.00
H1       0.88516    0.47003    0.26401   1.00
H1       0.85590    0.39568    0.06479   1.00
C5       0.84380    0.39155    0.14272   1.00
H1       0.88525    0.47005    0.19191   1.00
H2       0.82560    0.37401    0.12244   1.00
H2       0.85069    0.37208    0.16769   1.00
H2       0.95210    0.32392    0.20756   1.00
H2       0.93250    0.33969    0.16231   1.00
N1       0.82164    0.42539    0.15643   1.00
C6       0.80452    0.45252    0.13427   1.00
C6       0.81372    0.43445    0.19346   1.00
C6       0.78587    0.47954    0.15741   1.00
C6       0.79171    0.46805    0.19505   1.00
H3       0.80573    0.45297    0.10303   1.00
H3       0.82359    0.41785    0.21800   1.00
H3       0.76978    0.50479    0.14787   1.00
H3       0.78113    0.48257    0.22075   1.00
N1       0.99017    0.35866    0.17357   1.00
C6       1.00214    0.35984    0.13654   1.00
C6       1.02121    0.36671    0.19573   1.00
C6       1.04118    0.36926    0.13495   1.00
C6       1.05331    0.37364    0.17259   1.00
H3       0.98358    0.35449    0.11200   1.00
H3       1.02064    0.36787    0.22697   1.00
H3       1.05884    0.37260    0.10925   1.00
H3       1.08232    0.38102    0.18213   1.00
