data_IRMOF10_SG202_interpen_Ligand9cp_label_t.

_audit_creation_method             'generated by an auxiliary program of Tobunporous'

_symmetry_space_group_name_H-M     'P 1'
_symmetry_Int_Tables_number        1
_symmetry_cell_setting             triclinic

_cell_length_a                    34.2800
_cell_length_b                    34.2800
_cell_length_c                    34.2800
_cell_angle_alpha                 90.0000
_cell_angle_beta                  90.0000
_cell_angle_gamma                 90.0000

loop_
_atom_site_label
_atom_site_fract_x
_atom_site_fract_y
_atom_site_fract_z
_atom_site_occupancy
O1       0.75000    0.75000    0.75000   1.00
Zn1      0.71720    0.78280    0.78280   1.00
Zn1      0.78280    0.71720    0.78280   1.00
Zn1      0.78280    0.78280    0.71720   1.00
Zn1      0.71720    0.71720    0.71720   1.00
O2       0.72650    0.77350    0.83820   1.00
O2       0.72650    0.83820    0.77350   1.00
O2       0.66180    0.77350    0.77350   1.00
O2       0.77350    0.72650    0.83820   1.00
O2       0.83820    0.72650    0.77350   1.00
O2       0.77350    0.66180    0.77350   1.00
O2       0.77350    0.83820    0.72650   1.00
O2       0.83820    0.77350    0.72650   1.00
O2       0.77350    0.77350    0.66180   1.00
O2       0.66180    0.72650    0.72650   1.00
O2       0.72650    0.66180    0.72650   1.00
O2       0.72650    0.72650    0.66180   1.00
C1       0.75000    0.75000    0.85520   1.00
C1       0.75000    0.85520    0.75000   1.00
C1       0.64480    0.75000    0.75000   1.00
C1       0.85520    0.75000    0.75000   1.00
C1       0.75000    0.64480    0.75000   1.00
C1       0.75000    0.75000    0.64480   1.00
O1       0.25000    0.25000    0.75000   1.00
Zn1      0.21720    0.28280    0.78280   1.00
Zn1      0.28280    0.21720    0.78280   1.00
Zn1      0.28280    0.28280    0.71720   1.00
Zn1      0.21720    0.21720    0.71720   1.00
O2       0.22650    0.27350    0.83820   1.00
O2       0.22650    0.33820    0.77350   1.00
O2       0.16180    0.27350    0.77350   1.00
O2       0.27350    0.22650    0.83820   1.00
O2       0.33820    0.22650    0.77350   1.00
O2       0.27350    0.16180    0.77350   1.00
O2       0.27350    0.33820    0.72650   1.00
O2       0.33820    0.27350    0.72650   1.00
O2       0.27350    0.27350    0.66180   1.00
O2       0.16180    0.22650    0.72650   1.00
O2       0.22650    0.16180    0.72650   1.00
O2       0.22650    0.22650    0.66180   1.00
C1       0.25000    0.25000    0.85520   1.00
C1       0.25000    0.35520    0.75000   1.00
C1       0.14480    0.25000    0.75000   1.00
C1       0.35520    0.25000    0.75000   1.00
C1       0.25000    0.14480    0.75000   1.00
C1       0.25000    0.25000    0.64480   1.00
O1       0.25000    0.75000    0.25000   1.00
Zn1      0.21720    0.78280    0.28280   1.00
Zn1      0.28280    0.71720    0.28280   1.00
Zn1      0.28280    0.78280    0.21720   1.00
Zn1      0.21720    0.71720    0.21720   1.00
O2       0.22650    0.77350    0.33820   1.00
O2       0.22650    0.83820    0.27350   1.00
O2       0.16180    0.77350    0.27350   1.00
O2       0.27350    0.72650    0.33820   1.00
O2       0.33820    0.72650    0.27350   1.00
O2       0.27350    0.66180    0.27350   1.00
O2       0.27350    0.83820    0.22650   1.00
O2       0.33820    0.77350    0.22650   1.00
O2       0.27350    0.77350    0.16180   1.00
O2       0.16180    0.72650    0.22650   1.00
O2       0.22650    0.66180    0.22650   1.00
O2       0.22650    0.72650    0.16180   1.00
C1       0.25000    0.75000    0.35520   1.00
C1       0.25000    0.85520    0.25000   1.00
C1       0.14480    0.75000    0.25000   1.00
C1       0.35520    0.75000    0.25000   1.00
C1       0.25000    0.64480    0.25000   1.00
C1       0.25000    0.75000    0.14480   1.00
O1       0.75000    0.25000    0.25000   1.00
Zn1      0.71720    0.28280    0.28280   1.00
Zn1      0.78280    0.21720    0.28280   1.00
Zn1      0.78280    0.28280    0.21720   1.00
Zn1      0.71720    0.21720    0.21720   1.00
O2       0.72650    0.27350    0.33820   1.00
O2       0.72650    0.33820    0.27350   1.00
O2       0.66180    0.27350    0.27350   1.00
O2       0.77350    0.22650    0.33820   1.00
O2       0.83820    0.22650    0.27350   1.00
O2       0.77350    0.16180    0.27350   1.00
O2       0.77350    0.33820    0.22650   1.00
O2       0.83820    0.27350    0.22650   1.00
O2       0.77350    0.27350    0.16180   1.00
O2       0.66180    0.22650    0.22650   1.00
O2       0.72650    0.16180    0.22650   1.00
O2       0.72650    0.22650    0.16180   1.00
C1       0.75000    0.25000    0.35520   1.00
C1       0.75000    0.35520    0.25000   1.00
C1       0.64480    0.25000    0.25000   1.00
C1       0.85520    0.25000    0.25000   1.00
C1       0.75000    0.14480    0.25000   1.00
C1       0.75000    0.25000    0.14480   1.00
O1       0.25000    0.25000    0.25000   1.00
Zn1      0.28280    0.21720    0.21720   1.00
Zn1      0.21720    0.28280    0.21720   1.00
Zn1      0.21720    0.21720    0.28280   1.00
Zn1      0.28280    0.28280    0.28280   1.00
O2       0.27350    0.22650    0.16180   1.00
O2       0.27350    0.16180    0.22650   1.00
O2       0.33820    0.22650    0.22650   1.00
O2       0.22650    0.27350    0.16180   1.00
O2       0.16180    0.27350    0.22650   1.00
O2       0.22650    0.33820    0.22650   1.00
O2       0.22650    0.16180    0.27350   1.00
O2       0.16180    0.22650    0.27350   1.00
O2       0.22650    0.22650    0.33820   1.00
O2       0.33820    0.27350    0.27350   1.00
O2       0.27350    0.33820    0.27350   1.00
O2       0.27350    0.27350    0.33820   1.00
C1       0.25000    0.25000    0.14480   1.00
C1       0.25000    0.14480    0.25000   1.00
C1       0.35520    0.25000    0.25000   1.00
C1       0.14480    0.25000    0.25000   1.00
C1       0.25000    0.35520    0.25000   1.00
C1       0.25000    0.25000    0.35520   1.00
O1       0.75000    0.75000    0.25000   1.00
Zn1      0.78280    0.71720    0.21720   1.00
Zn1      0.71720    0.78280    0.21720   1.00
Zn1      0.71720    0.71720    0.28280   1.00
Zn1      0.78280    0.78280    0.28280   1.00
O2       0.77350    0.72650    0.16180   1.00
O2       0.77350    0.66180    0.22650   1.00
O2       0.83820    0.72650    0.22650   1.00
O2       0.72650    0.77350    0.16180   1.00
O2       0.66180    0.77350    0.22650   1.00
O2       0.72650    0.83820    0.22650   1.00
O2       0.72650    0.66180    0.27350   1.00
O2       0.66180    0.72650    0.27350   1.00
O2       0.72650    0.72650    0.33820   1.00
O2       0.83820    0.77350    0.27350   1.00
O2       0.77350    0.83820    0.27350   1.00
O2       0.77350    0.77350    0.33820   1.00
C1       0.75000    0.75000    0.14480   1.00
C1       0.75000    0.64480    0.25000   1.00
C1       0.85520    0.75000    0.25000   1.00
C1       0.64480    0.75000    0.25000   1.00
C1       0.75000    0.85520    0.25000   1.00
C1       0.75000    0.75000    0.35520   1.00
O1       0.75000    0.25000    0.75000   1.00
Zn1      0.78280    0.21720    0.71720   1.00
Zn1      0.71720    0.28280    0.71720   1.00
Zn1      0.71720    0.21720    0.78280   1.00
Zn1      0.78280    0.28280    0.78280   1.00
O2       0.77350    0.22650    0.66180   1.00
O2       0.77350    0.16180    0.72650   1.00
O2       0.83820    0.22650    0.72650   1.00
O2       0.72650    0.27350    0.66180   1.00
O2       0.66180    0.27350    0.72650   1.00
O2       0.72650    0.33820    0.72650   1.00
O2       0.72650    0.16180    0.77350   1.00
O2       0.66180    0.22650    0.77350   1.00
O2       0.72650    0.22650    0.83820   1.00
O2       0.83820    0.27350    0.77350   1.00
O2       0.77350    0.33820    0.77350   1.00
O2       0.77350    0.27350    0.83820   1.00
C1       0.75000    0.25000    0.64480   1.00
C1       0.75000    0.14480    0.75000   1.00
C1       0.85520    0.25000    0.75000   1.00
C1       0.64480    0.25000    0.75000   1.00
C1       0.75000    0.35520    0.75000   1.00
C1       0.75000    0.25000    0.85520   1.00
O1       0.25000    0.75000    0.75000   1.00
Zn1      0.28280    0.71720    0.71720   1.00
Zn1      0.21720    0.78280    0.71720   1.00
Zn1      0.21720    0.71720    0.78280   1.00
Zn1      0.28280    0.78280    0.78280   1.00
O2       0.27350    0.72650    0.66180   1.00
O2       0.27350    0.66180    0.72650   1.00
O2       0.33820    0.72650    0.72650   1.00
O2       0.22650    0.77350    0.66180   1.00
O2       0.16180    0.77350    0.72650   1.00
O2       0.22650    0.83820    0.72650   1.00
O2       0.22650    0.66180    0.77350   1.00
O2       0.16180    0.72650    0.77350   1.00
O2       0.22650    0.72650    0.83820   1.00
O2       0.33820    0.77350    0.77350   1.00
O2       0.27350    0.83820    0.77350   1.00
O2       0.27350    0.77350    0.83820   1.00
C1       0.25000    0.75000    0.64480   1.00
C1       0.25000    0.64480    0.75000   1.00
C1       0.35520    0.75000    0.75000   1.00
C1       0.14480    0.75000    0.75000   1.00
C1       0.25000    0.85520    0.75000   1.00
C1       0.25000    0.75000    0.85520   1.00
O1       0.91500    0.91500    0.91500   1.00
Zn1      0.88220    0.94780    0.94780   1.00
Zn1      0.94780    0.88220    0.94780   1.00
Zn1      0.94780    0.94780    0.88220   1.00
Zn1      0.88220    0.88220    0.88220   1.00
O2       0.89150    0.93850    1.00320   1.00
O2       0.89150    1.00320    0.93850   1.00
O2       0.82680    0.93850    0.93850   1.00
O2       0.93850    0.89150    1.00320   1.00
O2       1.00320    0.89150    0.93850   1.00
O2       0.93850    0.82680    0.93850   1.00
O2       0.93850    1.00320    0.89150   1.00
O2       1.00320    0.93850    0.89150   1.00
O2       0.93850    0.93850    0.82680   1.00
O2       0.82680    0.89150    0.89150   1.00
O2       0.89150    0.82680    0.89150   1.00
O2       0.89150    0.89150    0.82680   1.00
C1       0.91500    0.91500    1.02020   1.00
C1       0.91500    1.02020    0.91500   1.00
C1       0.80980    0.91500    0.91500   1.00
C1       1.02020    0.91500    0.91500   1.00
C1       0.91500    0.80980    0.91500   1.00
C1       0.91500    0.91500    0.80980   1.00
O1       0.41500    0.41500    0.91500   1.00
Zn1      0.38220    0.44780    0.94780   1.00
Zn1      0.44780    0.38220    0.94780   1.00
Zn1      0.44780    0.44780    0.88220   1.00
Zn1      0.38220    0.38220    0.88220   1.00
O2       0.39150    0.43850    1.00320   1.00
O2       0.39150    0.50320    0.93850   1.00
O2       0.32680    0.43850    0.93850   1.00
O2       0.43850    0.39150    1.00320   1.00
O2       0.50320    0.39150    0.93850   1.00
O2       0.43850    0.32680    0.93850   1.00
O2       0.43850    0.50320    0.89150   1.00
O2       0.50320    0.43850    0.89150   1.00
O2       0.43850    0.43850    0.82680   1.00
O2       0.32680    0.39150    0.89150   1.00
O2       0.39150    0.32680    0.89150   1.00
O2       0.39150    0.39150    0.82680   1.00
C1       0.41500    0.41500    1.02020   1.00
C1       0.41500    0.52020    0.91500   1.00
C1       0.30980    0.41500    0.91500   1.00
C1       0.52020    0.41500    0.91500   1.00
C1       0.41500    0.30980    0.91500   1.00
C1       0.41500    0.41500    0.80980   1.00
O1       0.41500    0.91500    0.41500   1.00
Zn1      0.38220    0.94780    0.44780   1.00
Zn1      0.44780    0.88220    0.44780   1.00
Zn1      0.44780    0.94780    0.38220   1.00
Zn1      0.38220    0.88220    0.38220   1.00
O2       0.39150    0.93850    0.50320   1.00
O2       0.39150    1.00320    0.43850   1.00
O2       0.32680    0.93850    0.43850   1.00
O2       0.43850    0.89150    0.50320   1.00
O2       0.50320    0.89150    0.43850   1.00
O2       0.43850    0.82680    0.43850   1.00
O2       0.43850    1.00320    0.39150   1.00
O2       0.50320    0.93850    0.39150   1.00
O2       0.43850    0.93850    0.32680   1.00
O2       0.32680    0.89150    0.39150   1.00
O2       0.39150    0.82680    0.39150   1.00
O2       0.39150    0.89150    0.32680   1.00
C1       0.41500    0.91500    0.52020   1.00
C1       0.41500    1.02020    0.41500   1.00
C1       0.30980    0.91500    0.41500   1.00
C1       0.52020    0.91500    0.41500   1.00
C1       0.41500    0.80980    0.41500   1.00
C1       0.41500    0.91500    0.30980   1.00
O1       0.91500    0.41500    0.41500   1.00
Zn1      0.88220    0.44780    0.44780   1.00
Zn1      0.94780    0.38220    0.44780   1.00
Zn1      0.94780    0.44780    0.38220   1.00
Zn1      0.88220    0.38220    0.38220   1.00
O2       0.89150    0.43850    0.50320   1.00
O2       0.89150    0.50320    0.43850   1.00
O2       0.82680    0.43850    0.43850   1.00
O2       0.93850    0.39150    0.50320   1.00
O2       1.00320    0.39150    0.43850   1.00
O2       0.93850    0.32680    0.43850   1.00
O2       0.93850    0.50320    0.39150   1.00
O2       1.00320    0.43850    0.39150   1.00
O2       0.93850    0.43850    0.32680   1.00
O2       0.82680    0.39150    0.39150   1.00
O2       0.89150    0.32680    0.39150   1.00
O2       0.89150    0.39150    0.32680   1.00
C1       0.91500    0.41500    0.52020   1.00
C1       0.91500    0.52020    0.41500   1.00
C1       0.80980    0.41500    0.41500   1.00
C1       1.02020    0.41500    0.41500   1.00
C1       0.91500    0.30980    0.41500   1.00
C1       0.91500    0.41500    0.30980   1.00
O1       0.41500    0.41500    0.41500   1.00
Zn1      0.44780    0.38220    0.38220   1.00
Zn1      0.38220    0.44780    0.38220   1.00
Zn1      0.38220    0.38220    0.44780   1.00
Zn1      0.44780    0.44780    0.44780   1.00
O2       0.43850    0.39150    0.32680   1.00
O2       0.43850    0.32680    0.39150   1.00
O2       0.50320    0.39150    0.39150   1.00
O2       0.39150    0.43850    0.32680   1.00
O2       0.32680    0.43850    0.39150   1.00
O2       0.39150    0.50320    0.39150   1.00
O2       0.39150    0.32680    0.43850   1.00
O2       0.32680    0.39150    0.43850   1.00
O2       0.39150    0.39150    0.50320   1.00
O2       0.50320    0.43850    0.43850   1.00
O2       0.43850    0.50320    0.43850   1.00
O2       0.43850    0.43850    0.50320   1.00
C1       0.41500    0.41500    0.30980   1.00
C1       0.41500    0.30980    0.41500   1.00
C1       0.52020    0.41500    0.41500   1.00
C1       0.30980    0.41500    0.41500   1.00
C1       0.41500    0.52020    0.41500   1.00
C1       0.41500    0.41500    0.52020   1.00
O1       0.91500    0.91500    0.41500   1.00
Zn1      0.94780    0.88220    0.38220   1.00
Zn1      0.88220    0.94780    0.38220   1.00
Zn1      0.88220    0.88220    0.44780   1.00
Zn1      0.94780    0.94780    0.44780   1.00
O2       0.93850    0.89150    0.32680   1.00
O2       0.93850    0.82680    0.39150   1.00
O2       1.00320    0.89150    0.39150   1.00
O2       0.89150    0.93850    0.32680   1.00
O2       0.82680    0.93850    0.39150   1.00
O2       0.89150    1.00320    0.39150   1.00
O2       0.89150    0.82680    0.43850   1.00
O2       0.82680    0.89150    0.43850   1.00
O2       0.89150    0.89150    0.50320   1.00
O2       1.00320    0.93850    0.43850   1.00
O2       0.93850    1.00320    0.43850   1.00
O2       0.93850    0.93850    0.50320   1.00
C1       0.91500    0.91500    0.30980   1.00
C1       0.91500    0.80980    0.41500   1.00
C1       1.02020    0.91500    0.41500   1.00
C1       0.80980    0.91500    0.41500   1.00
C1       0.91500    1.02020    0.41500   1.00
C1       0.91500    0.91500    0.52020   1.00
O1       0.91500    0.41500    0.91500   1.00
Zn1      0.94780    0.38220    0.88220   1.00
Zn1      0.88220    0.44780    0.88220   1.00
Zn1      0.88220    0.38220    0.94780   1.00
Zn1      0.94780    0.44780    0.94780   1.00
O2       0.93850    0.39150    0.82680   1.00
O2       0.93850    0.32680    0.89150   1.00
O2       1.00320    0.39150    0.89150   1.00
O2       0.89150    0.43850    0.82680   1.00
O2       0.82680    0.43850    0.89150   1.00
O2       0.89150    0.50320    0.89150   1.00
O2       0.89150    0.32680    0.93850   1.00
O2       0.82680    0.39150    0.93850   1.00
O2       0.89150    0.39150    1.00320   1.00
O2       1.00320    0.43850    0.93850   1.00
O2       0.93850    0.50320    0.93850   1.00
O2       0.93850    0.43850    1.00320   1.00
C1       0.91500    0.41500    0.80980   1.00
C1       0.91500    0.30980    0.91500   1.00
C1       1.02020    0.41500    0.91500   1.00
C1       0.80980    0.41500    0.91500   1.00
C1       0.91500    0.52020    0.91500   1.00
C1       0.91500    0.41500    1.02020   1.00
O1       0.41500    0.91500    0.91500   1.00
Zn1      0.44780    0.88220    0.88220   1.00
Zn1      0.38220    0.94780    0.88220   1.00
Zn1      0.38220    0.88220    0.94780   1.00
Zn1      0.44780    0.94780    0.94780   1.00
O2       0.43850    0.89150    0.82680   1.00
O2       0.43850    0.82680    0.89150   1.00
O2       0.50320    0.89150    0.89150   1.00
O2       0.39150    0.93850    0.82680   1.00
O2       0.32680    0.93850    0.89150   1.00
O2       0.39150    1.00320    0.89150   1.00
O2       0.39150    0.82680    0.93850   1.00
O2       0.32680    0.89150    0.93850   1.00
O2       0.39150    0.89150    1.00320   1.00
O2       0.50320    0.93850    0.93850   1.00
O2       0.43850    1.00320    0.93850   1.00
O2       0.43850    0.93850    1.00320   1.00
C1       0.41500    0.91500    0.80980   1.00
C1       0.41500    0.80980    0.91500   1.00
C1       0.52020    0.91500    0.91500   1.00
C1       0.30980    0.91500    0.91500   1.00
C1       0.41500    1.02020    0.91500   1.00
C1       0.41500    0.91500    1.02020   1.00
C4       0.74924    0.75013    0.97917   1.00
C4       0.75076    0.74987    1.02083   1.00
C3       0.72235    0.77370    0.95846   1.00
C3       0.74631    0.78427    1.04321   1.00
C3       0.77527    0.72746    0.95643   1.00
C3       0.75588    0.71469    1.04187   1.00
C2       0.74762    0.75192    0.89487   1.00
C2       0.75219    0.74834    1.10514   1.00
C3       0.72158    0.77448    0.91715   1.00
C3       0.74709    0.78345    1.08449   1.00
C3       0.77441    0.72838    0.91514   1.00
C3a      0.75667    0.71374    1.08328   1.00
H1       0.70148    0.79140    0.97425   1.00
H1       0.74268    0.81212    1.02875   1.00
H1       0.70053    0.79283    0.90240   1.00
H1       0.74376    0.81045    1.10056   1.00
H1       0.79494    0.71078    0.89882   1.00
C5       0.76198    0.67526    1.10380   1.00
H1       0.75908    0.68747    1.02622   1.00
H1       0.79703    0.70944    0.97059   1.00
H2       0.76271    0.67923    1.13599   1.00
H2       0.73652    0.65634    1.09705   1.00
N1       0.79819    0.65645    1.09125   1.00
C6       0.83453    0.67047    1.09644   1.00
C6       0.80137    0.62186    1.07288   1.00
C6       0.86128    0.64466    1.08102   1.00
C6       0.84018    0.61374    1.06604   1.00
H3       0.84130    0.69796    1.11049   1.00
H3       0.77698    0.60346    1.06484   1.00
H3       0.89265    0.64799    1.08076   1.00
H3       0.85183    0.58812    1.05180   1.00
C4       0.75013    0.97917    0.74924   1.00
C4       0.74987    1.02083    0.75076   1.00
C3       0.77370    0.95846    0.72235   1.00
C3       0.78427    1.04321    0.74631   1.00
C3       0.72746    0.95643    0.77527   1.00
C3       0.71469    1.04187    0.75588   1.00
C2       0.75192    0.89487    0.74762   1.00
C2       0.74834    1.10514    0.75219   1.00
C3       0.77448    0.91715    0.72158   1.00
C3       0.78345    1.08449    0.74709   1.00
C3       0.72838    0.91514    0.77441   1.00
C3a      0.71374    1.08328    0.75667   1.00
H1       0.79140    0.97425    0.70148   1.00
H1       0.81212    1.02875    0.74268   1.00
H1       0.79283    0.90240    0.70053   1.00
H1       0.81045    1.10056    0.74376   1.00
H1       0.71078    0.89882    0.79494   1.00
C5       0.67526    1.10380    0.76198   1.00
H1       0.68747    1.02622    0.75908   1.00
H1       0.70944    0.97059    0.79703   1.00
H2       0.67923    1.13599    0.76271   1.00
H2       0.65634    1.09705    0.73652   1.00
N1       0.65645    1.09125    0.79819   1.00
C6       0.67047    1.09644    0.83453   1.00
C6       0.62186    1.07288    0.80137   1.00
C6       0.64466    1.08102    0.86128   1.00
C6       0.61374    1.06604    0.84018   1.00
H3       0.69796    1.11049    0.84130   1.00
H3       0.60346    1.06484    0.77698   1.00
H3       0.64799    1.08076    0.89265   1.00
H3       0.58812    1.05180    0.85183   1.00
C4       0.52083    0.74924    0.74987   1.00
C4       0.47917    0.75076    0.75013   1.00
C3       0.54154    0.72235    0.72630   1.00
C3       0.45679    0.74631    0.71573   1.00
C3       0.54357    0.77527    0.77254   1.00
C3       0.45813    0.75588    0.78531   1.00
C2       0.60513    0.74762    0.74808   1.00
C2       0.39486    0.75219    0.75166   1.00
C3       0.58285    0.72158    0.72552   1.00
C3       0.41551    0.74709    0.71655   1.00
C3       0.58486    0.77441    0.77162   1.00
C3a      0.41672    0.75667    0.78626   1.00
H1       0.52575    0.70148    0.70860   1.00
H1       0.47125    0.74268    0.68788   1.00
H1       0.59760    0.70053    0.70717   1.00
H1       0.39944    0.74376    0.68955   1.00
H1       0.60118    0.79494    0.78922   1.00
C5       0.39620    0.76198    0.82474   1.00
H1       0.47378    0.75908    0.81253   1.00
H1       0.52941    0.79703    0.79056   1.00
H2       0.36401    0.76271    0.82077   1.00
H2       0.40295    0.73652    0.84366   1.00
N1       0.40875    0.79819    0.84355   1.00
C6       0.40356    0.83453    0.82953   1.00
C6       0.42712    0.80137    0.87814   1.00
C6       0.41898    0.86128    0.85534   1.00
C6       0.43396    0.84018    0.88626   1.00
H3       0.38951    0.84130    0.80204   1.00
H3       0.43516    0.77698    0.89654   1.00
H3       0.41924    0.89265    0.85201   1.00
H3       0.44820    0.85183    0.91188   1.00
C4       0.97917    0.74924    0.75013   1.00
C4       1.02083    0.75076    0.74987   1.00
C3       0.95846    0.72235    0.77370   1.00
C3       1.04321    0.74631    0.78427   1.00
C3       0.95643    0.77527    0.72746   1.00
C3       1.04187    0.75588    0.71469   1.00
C2       0.89487    0.74762    0.75192   1.00
C2       1.10514    0.75219    0.74834   1.00
C3       0.91715    0.72158    0.77448   1.00
C3       1.08449    0.74709    0.78345   1.00
C3       0.91514    0.77441    0.72838   1.00
C3a      1.08328    0.75667    0.71374   1.00
H1       0.97425    0.70148    0.79140   1.00
H1       1.02875    0.74268    0.81212   1.00
H1       0.90240    0.70053    0.79283   1.00
H1       1.10056    0.74376    0.81045   1.00
H1       0.89882    0.79494    0.71078   1.00
C5       1.10380    0.76198    0.67526   1.00
H1       1.02622    0.75908    0.68747   1.00
H1       0.97059    0.79703    0.70944   1.00
H2       1.13599    0.76271    0.67923   1.00
H2       1.09705    0.73652    0.65634   1.00
N1       1.09125    0.79819    0.65645   1.00
C6       1.09644    0.83453    0.67047   1.00
C6       1.07288    0.80137    0.62186   1.00
C6       1.08102    0.86128    0.64466   1.00
C6       1.06604    0.84018    0.61374   1.00
H3       1.11049    0.84130    0.69796   1.00
H3       1.06484    0.77698    0.60346   1.00
H3       1.08076    0.89265    0.64799   1.00
H3       1.05180    0.85183    0.58812   1.00
C4       0.74987    0.52083    0.74924   1.00
C4       0.75013    0.47917    0.75076   1.00
C3       0.72630    0.54154    0.72235   1.00
C3       0.71573    0.45679    0.74631   1.00
C3       0.77254    0.54357    0.77527   1.00
C3       0.78531    0.45813    0.75588   1.00
C2       0.74808    0.60513    0.74762   1.00
C2       0.75166    0.39486    0.75219   1.00
C3       0.72552    0.58285    0.72158   1.00
C3       0.71655    0.41551    0.74709   1.00
C3       0.77162    0.58486    0.77441   1.00
C3a      0.78626    0.41672    0.75667   1.00
H1       0.70860    0.52575    0.70148   1.00
H1       0.68788    0.47125    0.74268   1.00
H1       0.70717    0.59760    0.70053   1.00
H1       0.68955    0.39944    0.74376   1.00
H1       0.78922    0.60118    0.79494   1.00
C5       0.82474    0.39620    0.76198   1.00
H1       0.81253    0.47378    0.75908   1.00
H1       0.79056    0.52941    0.79703   1.00
H2       0.82077    0.36401    0.76271   1.00
H2       0.84366    0.40295    0.73652   1.00
N1       0.84355    0.40875    0.79819   1.00
C6       0.82953    0.40356    0.83453   1.00
C6       0.87814    0.42712    0.80137   1.00
C6       0.85534    0.41898    0.86128   1.00
C6       0.88626    0.43396    0.84018   1.00
H3       0.80204    0.38951    0.84130   1.00
H3       0.89654    0.43516    0.77698   1.00
H3       0.85201    0.41924    0.89265   1.00
H3       0.91188    0.44820    0.85183   1.00
C4       0.74924    0.74987    0.52083   1.00
C4       0.75076    0.75013    0.47917   1.00
C3       0.72235    0.72630    0.54154   1.00
C3       0.74631    0.71573    0.45679   1.00
C3       0.77527    0.77254    0.54357   1.00
C3       0.75588    0.78531    0.45813   1.00
C2       0.74762    0.74808    0.60513   1.00
C2       0.75219    0.75166    0.39486   1.00
C3       0.72158    0.72552    0.58285   1.00
C3       0.74709    0.71655    0.41551   1.00
C3       0.77441    0.77162    0.58486   1.00
C3a      0.75667    0.78626    0.41672   1.00
H1       0.70148    0.70860    0.52575   1.00
H1       0.74268    0.68788    0.47125   1.00
H1       0.70053    0.70717    0.59760   1.00
H1       0.74376    0.68955    0.39944   1.00
H1       0.79494    0.78922    0.60118   1.00
C5       0.76198    0.82474    0.39620   1.00
H1       0.75908    0.81253    0.47378   1.00
H1       0.79703    0.79056    0.52941   1.00
H2       0.76271    0.82077    0.36401   1.00
H2       0.73652    0.84366    0.40295   1.00
N1       0.79819    0.84355    0.40875   1.00
C6       0.83453    0.82953    0.40356   1.00
C6       0.80137    0.87814    0.42712   1.00
C6       0.86128    0.85534    0.41898   1.00
C6       0.84018    0.88626    0.43396   1.00
H3       0.84130    0.80204    0.38951   1.00
H3       0.77698    0.89654    0.43516   1.00
H3       0.89265    0.85201    0.41924   1.00
H3       0.85183    0.91188    0.44820   1.00
C4       0.24924    0.25013    0.97917   1.00
C4       0.25076    0.24987    1.02083   1.00
C3       0.22235    0.27370    0.95846   1.00
C3       0.24631    0.28427    1.04321   1.00
C3       0.27527    0.22746    0.95643   1.00
C3       0.25588    0.21469    1.04187   1.00
C2       0.24762    0.25192    0.89487   1.00
C2       0.25219    0.24834    1.10514   1.00
C3       0.22158    0.27448    0.91715   1.00
C3       0.24709    0.28345    1.08449   1.00
C3       0.27441    0.22838    0.91514   1.00
C3a      0.25667    0.21374    1.08328   1.00
H1       0.20148    0.29140    0.97425   1.00
H1       0.24268    0.31212    1.02875   1.00
H1       0.20053    0.29283    0.90240   1.00
H1       0.24376    0.31045    1.10056   1.00
H1       0.29494    0.21078    0.89882   1.00
C5       0.26198    0.17526    1.10380   1.00
H1       0.25908    0.18747    1.02622   1.00
H1       0.29703    0.20944    0.97059   1.00
H2       0.26271    0.17923    1.13599   1.00
H2       0.23652    0.15634    1.09705   1.00
N1       0.29819    0.15645    1.09125   1.00
C6       0.33453    0.17047    1.09644   1.00
C6       0.30137    0.12186    1.07288   1.00
C6       0.36128    0.14466    1.08102   1.00
C6       0.34018    0.11374    1.06604   1.00
H3       0.34130    0.19796    1.11049   1.00
H3       0.27698    0.10346    1.06484   1.00
H3       0.39265    0.14799    1.08076   1.00
H3       0.35183    0.08812    1.05180   1.00
C4       0.25013    0.47917    0.74924   1.00
C4       0.24987    0.52083    0.75076   1.00
C3       0.27370    0.45846    0.72235   1.00
C3       0.28427    0.54321    0.74631   1.00
C3       0.22746    0.45643    0.77527   1.00
C3       0.21469    0.54187    0.75588   1.00
C2       0.25192    0.39487    0.74762   1.00
C2       0.24834    0.60514    0.75219   1.00
C3       0.27448    0.41715    0.72158   1.00
C3       0.28345    0.58449    0.74709   1.00
C3       0.22838    0.41514    0.77441   1.00
C3a      0.21374    0.58328    0.75667   1.00
H1       0.29140    0.47425    0.70148   1.00
H1       0.31212    0.52875    0.74268   1.00
H1       0.29283    0.40240    0.70053   1.00
H1       0.31045    0.60056    0.74376   1.00
H1       0.21078    0.39882    0.79494   1.00
C5       0.17526    0.60380    0.76198   1.00
H1       0.18747    0.52622    0.75908   1.00
H1       0.20944    0.47059    0.79703   1.00
H2       0.17923    0.63599    0.76271   1.00
H2       0.15634    0.59705    0.73652   1.00
N1       0.15645    0.59125    0.79819   1.00
C6       0.17047    0.59644    0.83453   1.00
C6       0.12186    0.57288    0.80137   1.00
C6       0.14466    0.58102    0.86128   1.00
C6       0.11374    0.56604    0.84018   1.00
H3       0.19796    0.61049    0.84130   1.00
H3       0.10346    0.56484    0.77698   1.00
H3       0.14799    0.58076    0.89265   1.00
H3       0.08812    0.55180    0.85183   1.00
C4       0.02083    0.24924    0.74987   1.00
C4       -0.02083   0.25076    0.75013   1.00
C3       0.04154    0.22235    0.72630   1.00
C3       -0.04321   0.24631    0.71573   1.00
C3       0.04357    0.27527    0.77254   1.00
C3       -0.04187   0.25588    0.78531   1.00
C2       0.10513    0.24762    0.74808   1.00
C2       -0.10514   0.25219    0.75166   1.00
C3       0.08285    0.22158    0.72552   1.00
C3       -0.08449   0.24709    0.71655   1.00
C3       0.08486    0.27441    0.77162   1.00
C3a      -0.08328   0.25667    0.78626   1.00
H1       0.02575    0.20148    0.70860   1.00
H1       -0.02875   0.24268    0.68788   1.00
H1       0.09760    0.20053    0.70717   1.00
H1       -0.10056   0.24376    0.68955   1.00
H1       0.10118    0.29494    0.78922   1.00
C5       -0.10380   0.26198    0.82474   1.00
H1       -0.02622   0.25908    0.81253   1.00
H1       0.02941    0.29703    0.79056   1.00
H2       -0.13599   0.26271    0.82077   1.00
H2       -0.09705   0.23652    0.84366   1.00
N1       -0.09125   0.29819    0.84355   1.00
C6       -0.09644   0.33453    0.82953   1.00
C6       -0.07288   0.30137    0.87814   1.00
C6       -0.08102   0.36128    0.85534   1.00
C6       -0.06604   0.34018    0.88626   1.00
H3       -0.11049   0.34130    0.80204   1.00
H3       -0.06484   0.27698    0.89654   1.00
H3       -0.08076   0.39265    0.85201   1.00
H3       -0.05180   0.35183    0.91188   1.00
C4       0.47917    0.24924    0.75013   1.00
C4       0.52083    0.25076    0.74987   1.00
C3       0.45846    0.22235    0.77370   1.00
C3       0.54321    0.24631    0.78427   1.00
C3       0.45643    0.27527    0.72746   1.00
C3       0.54187    0.25588    0.71469   1.00
C2       0.39487    0.24762    0.75192   1.00
C2       0.60514    0.25219    0.74834   1.00
C3       0.41715    0.22158    0.77448   1.00
C3       0.58449    0.24709    0.78345   1.00
C3       0.41514    0.27441    0.72838   1.00
C3a      0.58328    0.25667    0.71374   1.00
H1       0.47425    0.20148    0.79140   1.00
H1       0.52875    0.24268    0.81212   1.00
H1       0.40240    0.20053    0.79283   1.00
H1       0.60056    0.24376    0.81045   1.00
H1       0.39882    0.29494    0.71078   1.00
C5       0.60380    0.26198    0.67526   1.00
H1       0.52622    0.25908    0.68747   1.00
H1       0.47059    0.29703    0.70944   1.00
H2       0.63599    0.26271    0.67923   1.00
H2       0.59705    0.23652    0.65634   1.00
N1       0.59125    0.29819    0.65645   1.00
C6       0.59644    0.33453    0.67047   1.00
C6       0.57288    0.30137    0.62186   1.00
C6       0.58102    0.36128    0.64466   1.00
C6       0.56604    0.34018    0.61374   1.00
H3       0.61049    0.34130    0.69796   1.00
H3       0.56484    0.27698    0.60346   1.00
H3       0.58076    0.39265    0.64799   1.00
H3       0.55180    0.35183    0.58812   1.00
C4       0.24987    0.02083    0.74924   1.00
C4       0.25013    -0.02083   0.75076   1.00
C3       0.22630    0.04154    0.72235   1.00
C3       0.21573    -0.04321   0.74631   1.00
C3       0.27254    0.04357    0.77527   1.00
C3       0.28531    -0.04187   0.75588   1.00
C2       0.24808    0.10513    0.74762   1.00
C2       0.25166    -0.10514   0.75219   1.00
C3       0.22552    0.08285    0.72158   1.00
C3       0.21655    -0.08449   0.74709   1.00
C3       0.27162    0.08486    0.77441   1.00
C3a      0.28626    -0.08328   0.75667   1.00
H1       0.20860    0.02575    0.70148   1.00
H1       0.18788    -0.02875   0.74268   1.00
H1       0.20717    0.09760    0.70053   1.00
H1       0.18955    -0.10056   0.74376   1.00
H1       0.28922    0.10118    0.79494   1.00
C5       0.32474    -0.10380   0.76198   1.00
H1       0.31253    -0.02622   0.75908   1.00
H1       0.29056    0.02941    0.79703   1.00
H2       0.32077    -0.13599   0.76271   1.00
H2       0.34366    -0.09705   0.73652   1.00
N1       0.34355    -0.09125   0.79819   1.00
C6       0.32953    -0.09644   0.83453   1.00
C6       0.37814    -0.07288   0.80137   1.00
C6       0.35534    -0.08102   0.86128   1.00
C6       0.38626    -0.06604   0.84018   1.00
H3       0.30204    -0.11049   0.84130   1.00
H3       0.39654    -0.06484   0.77698   1.00
H3       0.35201    -0.08076   0.89265   1.00
H3       0.41188    -0.05180   0.85183   1.00
C4       0.24924    0.24987    0.52083   1.00
C4       0.25076    0.25013    0.47917   1.00
C3       0.22235    0.22630    0.54154   1.00
C3       0.24631    0.21573    0.45679   1.00
C3       0.27527    0.27254    0.54357   1.00
C3       0.25588    0.28531    0.45813   1.00
C2       0.24762    0.24808    0.60513   1.00
C2       0.25219    0.25166    0.39486   1.00
C3       0.22158    0.22552    0.58285   1.00
C3       0.24709    0.21655    0.41551   1.00
C3       0.27441    0.27162    0.58486   1.00
C3a      0.25667    0.28626    0.41672   1.00
H1       0.20148    0.20860    0.52575   1.00
H1       0.24268    0.18788    0.47125   1.00
H1       0.20053    0.20717    0.59760   1.00
H1       0.24376    0.18955    0.39944   1.00
H1       0.29494    0.28922    0.60118   1.00
C5       0.26198    0.32474    0.39620   1.00
H1       0.25908    0.31253    0.47378   1.00
H1       0.29703    0.29056    0.52941   1.00
H2       0.26271    0.32077    0.36401   1.00
H2       0.23652    0.34366    0.40295   1.00
N1       0.29819    0.34355    0.40875   1.00
C6       0.33453    0.32953    0.40356   1.00
C6       0.30137    0.37814    0.42712   1.00
C6       0.36128    0.35534    0.41898   1.00
C6       0.34018    0.38626    0.43396   1.00
H3       0.34130    0.30204    0.38951   1.00
H3       0.27698    0.39654    0.43516   1.00
H3       0.39265    0.35201    0.41924   1.00
H3       0.35183    0.41188    0.44820   1.00
C4       0.24924    0.75013    0.47917   1.00
C4       0.25076    0.74987    0.52083   1.00
C3       0.22235    0.77370    0.45846   1.00
C3       0.24631    0.78427    0.54321   1.00
C3       0.27527    0.72746    0.45643   1.00
C3       0.25588    0.71469    0.54187   1.00
C2       0.24762    0.75192    0.39487   1.00
C2       0.25219    0.74834    0.60514   1.00
C3       0.22158    0.77448    0.41715   1.00
C3       0.24709    0.78345    0.58449   1.00
C3       0.27441    0.72838    0.41514   1.00
C3a      0.25667    0.71374    0.58328   1.00
H1       0.20148    0.79140    0.47425   1.00
H1       0.24268    0.81212    0.52875   1.00
H1       0.20053    0.79283    0.40240   1.00
H1       0.24376    0.81045    0.60056   1.00
H1       0.29494    0.71078    0.39882   1.00
C5       0.26198    0.67526    0.60380   1.00
H1       0.25908    0.68747    0.52622   1.00
H1       0.29703    0.70944    0.47059   1.00
H2       0.26271    0.67923    0.63599   1.00
H2       0.23652    0.65634    0.59705   1.00
N1       0.29819    0.65645    0.59125   1.00
C6       0.33453    0.67047    0.59644   1.00
C6       0.30137    0.62186    0.57288   1.00
C6       0.36128    0.64466    0.58102   1.00
C6       0.34018    0.61374    0.56604   1.00
H3       0.34130    0.69796    0.61049   1.00
H3       0.27698    0.60346    0.56484   1.00
H3       0.39265    0.64799    0.58076   1.00
H3       0.35183    0.58812    0.55180   1.00
C4       0.25013    0.97917    0.24924   1.00
C4       0.24987    1.02083    0.25076   1.00
C3       0.27370    0.95846    0.22235   1.00
C3       0.28427    1.04321    0.24631   1.00
C3       0.22746    0.95643    0.27527   1.00
C3       0.21469    1.04187    0.25588   1.00
C2       0.25192    0.89487    0.24762   1.00
C2       0.24834    1.10514    0.25219   1.00
C3       0.27448    0.91715    0.22158   1.00
C3       0.28345    1.08449    0.24709   1.00
C3       0.22838    0.91514    0.27441   1.00
C3a      0.21374    1.08328    0.25667   1.00
H1       0.29140    0.97425    0.20148   1.00
H1       0.31212    1.02875    0.24268   1.00
H1       0.29283    0.90240    0.20053   1.00
H1       0.31045    1.10056    0.24376   1.00
H1       0.21078    0.89882    0.29494   1.00
C5       0.17526    1.10380    0.26198   1.00
H1       0.18747    1.02622    0.25908   1.00
H1       0.20944    0.97059    0.29703   1.00
H2       0.17923    1.13599    0.26271   1.00
H2       0.15634    1.09705    0.23652   1.00
N1       0.15645    1.09125    0.29819   1.00
C6       0.17047    1.09644    0.33453   1.00
C6       0.12186    1.07288    0.30137   1.00
C6       0.14466    1.08102    0.36128   1.00
C6       0.11374    1.06604    0.34018   1.00
H3       0.19796    1.11049    0.34130   1.00
H3       0.10346    1.06484    0.27698   1.00
H3       0.14799    1.08076    0.39265   1.00
H3       0.08812    1.05180    0.35183   1.00
C4       0.02083    0.74924    0.24987   1.00
C4       -0.02083   0.75076    0.25013   1.00
C3       0.04154    0.72235    0.22630   1.00
C3       -0.04321   0.74631    0.21573   1.00
C3       0.04357    0.77527    0.27254   1.00
C3       -0.04187   0.75588    0.28531   1.00
C2       0.10513    0.74762    0.24808   1.00
C2       -0.10514   0.75219    0.25166   1.00
C3       0.08285    0.72158    0.22552   1.00
C3       -0.08449   0.74709    0.21655   1.00
C3       0.08486    0.77441    0.27162   1.00
C3a      -0.08328   0.75667    0.28626   1.00
H1       0.02575    0.70148    0.20860   1.00
H1       -0.02875   0.74268    0.18788   1.00
H1       0.09760    0.70053    0.20717   1.00
H1       -0.10056   0.74376    0.18955   1.00
H1       0.10118    0.79494    0.28922   1.00
C5       -0.10380   0.76198    0.32474   1.00
H1       -0.02622   0.75908    0.31253   1.00
H1       0.02941    0.79703    0.29056   1.00
H2       -0.13599   0.76271    0.32077   1.00
H2       -0.09705   0.73652    0.34366   1.00
N1       -0.09125   0.79819    0.34355   1.00
C6       -0.09644   0.83453    0.32953   1.00
C6       -0.07288   0.80137    0.37814   1.00
C6       -0.08102   0.86128    0.35534   1.00
C6       -0.06604   0.84018    0.38626   1.00
H3       -0.11049   0.84130    0.30204   1.00
H3       -0.06484   0.77698    0.39654   1.00
H3       -0.08076   0.89265    0.35201   1.00
H3       -0.05180   0.85183    0.41188   1.00
C4       0.47917    0.74924    0.25013   1.00
C4       0.52083    0.75076    0.24987   1.00
C3       0.45846    0.72235    0.27370   1.00
C3       0.54321    0.74631    0.28427   1.00
C3       0.45643    0.77527    0.22746   1.00
C3       0.54187    0.75588    0.21469   1.00
C2       0.39487    0.74762    0.25192   1.00
C2       0.60514    0.75219    0.24834   1.00
C3       0.41715    0.72158    0.27448   1.00
C3       0.58449    0.74709    0.28345   1.00
C3       0.41514    0.77441    0.22838   1.00
C3a      0.58328    0.75667    0.21374   1.00
H1       0.47425    0.70148    0.29140   1.00
H1       0.52875    0.74268    0.31212   1.00
H1       0.40240    0.70053    0.29283   1.00
H1       0.60056    0.74376    0.31045   1.00
H1       0.39882    0.79494    0.21078   1.00
C5       0.60380    0.76198    0.17526   1.00
H1       0.52622    0.75908    0.18747   1.00
H1       0.47059    0.79703    0.20944   1.00
H2       0.63599    0.76271    0.17923   1.00
H2       0.59705    0.73652    0.15634   1.00
N1       0.59125    0.79819    0.15645   1.00
C6       0.59644    0.83453    0.17047   1.00
C6       0.57288    0.80137    0.12186   1.00
C6       0.58102    0.86128    0.14466   1.00
C6       0.56604    0.84018    0.11374   1.00
H3       0.61049    0.84130    0.19796   1.00
H3       0.56484    0.77698    0.10346   1.00
H3       0.58076    0.89265    0.14799   1.00
H3       0.55180    0.85183    0.08812   1.00
C4       0.24987    0.52083    0.24924   1.00
C4       0.25013    0.47917    0.25076   1.00
C3       0.22630    0.54154    0.22235   1.00
C3       0.21573    0.45679    0.24631   1.00
C3       0.27254    0.54357    0.27527   1.00
C3       0.28531    0.45813    0.25588   1.00
C2       0.24808    0.60513    0.24762   1.00
C2       0.25166    0.39486    0.25219   1.00
C3       0.22552    0.58285    0.22158   1.00
C3       0.21655    0.41551    0.24709   1.00
C3       0.27162    0.58486    0.27441   1.00
C3a      0.28626    0.41672    0.25667   1.00
H1       0.20860    0.52575    0.20148   1.00
H1       0.18788    0.47125    0.24268   1.00
H1       0.20717    0.59760    0.20053   1.00
H1       0.18955    0.39944    0.24376   1.00
H1       0.28922    0.60118    0.29494   1.00
C5       0.32474    0.39620    0.26198   1.00
H1       0.31253    0.47378    0.25908   1.00
H1       0.29056    0.52941    0.29703   1.00
H2       0.32077    0.36401    0.26271   1.00
H2       0.34366    0.40295    0.23652   1.00
N1       0.34355    0.40875    0.29819   1.00
C6       0.32953    0.40356    0.33453   1.00
C6       0.37814    0.42712    0.30137   1.00
C6       0.35534    0.41898    0.36128   1.00
C6       0.38626    0.43396    0.34018   1.00
H3       0.30204    0.38951    0.34130   1.00
H3       0.39654    0.43516    0.27698   1.00
H3       0.35201    0.41924    0.39265   1.00
H3       0.41188    0.44820    0.35183   1.00
C4       0.24924    0.74987    0.02083   1.00
C4       0.25076    0.75013    -0.02083   1.00
C3       0.22235    0.72630    0.04154   1.00
C3       0.24631    0.71573    -0.04321   1.00
C3       0.27527    0.77254    0.04357   1.00
C3       0.25588    0.78531    -0.04187   1.00
C2       0.24762    0.74808    0.10513   1.00
C2       0.25219    0.75166    -0.10514   1.00
C3       0.22158    0.72552    0.08285   1.00
C3       0.24709    0.71655    -0.08449   1.00
C3       0.27441    0.77162    0.08486   1.00
C3a      0.25667    0.78626    -0.08328   1.00
H1       0.20148    0.70860    0.02575   1.00
H1       0.24268    0.68788    -0.02875   1.00
H1       0.20053    0.70717    0.09760   1.00
H1       0.24376    0.68955    -0.10056   1.00
H1       0.29494    0.78922    0.10118   1.00
C5       0.26198    0.82474    -0.10380   1.00
H1       0.25908    0.81253    -0.02622   1.00
H1       0.29703    0.79056    0.02941   1.00
H2       0.26271    0.82077    -0.13599   1.00
H2       0.23652    0.84366    -0.09705   1.00
N1       0.29819    0.84355    -0.09125   1.00
C6       0.33453    0.82953    -0.09644   1.00
C6       0.30137    0.87814    -0.07288   1.00
C6       0.36128    0.85534    -0.08102   1.00
C6       0.34018    0.88626    -0.06604   1.00
H3       0.34130    0.80204    -0.11049   1.00
H3       0.27698    0.89654    -0.06484   1.00
H3       0.39265    0.85201    -0.08076   1.00
H3       0.35183    0.91188    -0.05180   1.00
C4       0.74924    0.25013    0.47917   1.00
C4       0.75076    0.24987    0.52083   1.00
C3       0.72235    0.27370    0.45846   1.00
C3       0.74631    0.28427    0.54321   1.00
C3       0.77527    0.22746    0.45643   1.00
C3       0.75588    0.21469    0.54187   1.00
C2       0.74762    0.25192    0.39487   1.00
C2       0.75219    0.24834    0.60514   1.00
C3       0.72158    0.27448    0.41715   1.00
C3       0.74709    0.28345    0.58449   1.00
C3       0.77441    0.22838    0.41514   1.00
C3a      0.75667    0.21374    0.58328   1.00
H1       0.70148    0.29140    0.47425   1.00
H1       0.74268    0.31212    0.52875   1.00
H1       0.70053    0.29283    0.40240   1.00
H1       0.74376    0.31045    0.60056   1.00
H1       0.79494    0.21078    0.39882   1.00
C5       0.76198    0.17526    0.60380   1.00
H1       0.75908    0.18747    0.52622   1.00
H1       0.79703    0.20944    0.47059   1.00
H2       0.76271    0.17923    0.63599   1.00
H2       0.73652    0.15634    0.59705   1.00
N1       0.79819    0.15645    0.59125   1.00
C6       0.83453    0.17047    0.59644   1.00
C6       0.80137    0.12186    0.57288   1.00
C6       0.86128    0.14466    0.58102   1.00
C6       0.84018    0.11374    0.56604   1.00
H3       0.84130    0.19796    0.61049   1.00
H3       0.77698    0.10346    0.56484   1.00
H3       0.89265    0.14799    0.58076   1.00
H3       0.85183    0.08812    0.55180   1.00
C4       0.75013    0.47917    0.24924   1.00
C4       0.74987    0.52083    0.25076   1.00
C3       0.77370    0.45846    0.22235   1.00
C3       0.78427    0.54321    0.24631   1.00
C3       0.72746    0.45643    0.27527   1.00
C3       0.71469    0.54187    0.25588   1.00
C2       0.75192    0.39487    0.24762   1.00
C2       0.74834    0.60514    0.25219   1.00
C3       0.77448    0.41715    0.22158   1.00
C3       0.78345    0.58449    0.24709   1.00
C3       0.72838    0.41514    0.27441   1.00
C3a      0.71374    0.58328    0.25667   1.00
H1       0.79140    0.47425    0.20148   1.00
H1       0.81212    0.52875    0.24268   1.00
H1       0.79283    0.40240    0.20053   1.00
H1       0.81045    0.60056    0.24376   1.00
H1       0.71078    0.39882    0.29494   1.00
C5       0.67526    0.60380    0.26198   1.00
H1       0.68747    0.52622    0.25908   1.00
H1       0.70944    0.47059    0.29703   1.00
H2       0.67923    0.63599    0.26271   1.00
H2       0.65634    0.59705    0.23652   1.00
N1       0.65645    0.59125    0.29819   1.00
C6       0.67047    0.59644    0.33453   1.00
C6       0.62186    0.57288    0.30137   1.00
C6       0.64466    0.58102    0.36128   1.00
C6       0.61374    0.56604    0.34018   1.00
H3       0.69796    0.61049    0.34130   1.00
H3       0.60346    0.56484    0.27698   1.00
H3       0.64799    0.58076    0.39265   1.00
H3       0.58812    0.55180    0.35183   1.00
C4       0.52083    0.24924    0.24987   1.00
C4       0.47917    0.25076    0.25013   1.00
C3       0.54154    0.22235    0.22630   1.00
C3       0.45679    0.24631    0.21573   1.00
C3       0.54357    0.27527    0.27254   1.00
C3       0.45813    0.25588    0.28531   1.00
C2       0.60513    0.24762    0.24808   1.00
C2       0.39486    0.25219    0.25166   1.00
C3       0.58285    0.22158    0.22552   1.00
C3       0.41551    0.24709    0.21655   1.00
C3       0.58486    0.27441    0.27162   1.00
C3a      0.41672    0.25667    0.28626   1.00
H1       0.52575    0.20148    0.20860   1.00
H1       0.47125    0.24268    0.18788   1.00
H1       0.59760    0.20053    0.20717   1.00
H1       0.39944    0.24376    0.18955   1.00
H1       0.60118    0.29494    0.28922   1.00
C5       0.39620    0.26198    0.32474   1.00
H1       0.47378    0.25908    0.31253   1.00
H1       0.52941    0.29703    0.29056   1.00
H2       0.36401    0.26271    0.32077   1.00
H2       0.40295    0.23652    0.34366   1.00
N1       0.40875    0.29819    0.34355   1.00
C6       0.40356    0.33453    0.32953   1.00
C6       0.42712    0.30137    0.37814   1.00
C6       0.41898    0.36128    0.35534   1.00
C6       0.43396    0.34018    0.38626   1.00
H3       0.38951    0.34130    0.30204   1.00
H3       0.43516    0.27698    0.39654   1.00
H3       0.41924    0.39265    0.35201   1.00
H3       0.44820    0.35183    0.41188   1.00
C4       0.97917    0.24924    0.25013   1.00
C4       1.02083    0.25076    0.24987   1.00
C3       0.95846    0.22235    0.27370   1.00
C3       1.04321    0.24631    0.28427   1.00
C3       0.95643    0.27527    0.22746   1.00
C3       1.04187    0.25588    0.21469   1.00
C2       0.89487    0.24762    0.25192   1.00
C2       1.10514    0.25219    0.24834   1.00
C3       0.91715    0.22158    0.27448   1.00
C3       1.08449    0.24709    0.28345   1.00
C3       0.91514    0.27441    0.22838   1.00
C3a      1.08328    0.25667    0.21374   1.00
H1       0.97425    0.20148    0.29140   1.00
H1       1.02875    0.24268    0.31212   1.00
H1       0.90240    0.20053    0.29283   1.00
H1       1.10056    0.24376    0.31045   1.00
H1       0.89882    0.29494    0.21078   1.00
C5       1.10380    0.26198    0.17526   1.00
H1       1.02622    0.25908    0.18747   1.00
H1       0.97059    0.29703    0.20944   1.00
H2       1.13599    0.26271    0.17923   1.00
H2       1.09705    0.23652    0.15634   1.00
N1       1.09125    0.29819    0.15645   1.00
C6       1.09644    0.33453    0.17047   1.00
C6       1.07288    0.30137    0.12186   1.00
C6       1.08102    0.36128    0.14466   1.00
C6       1.06604    0.34018    0.11374   1.00
H3       1.11049    0.34130    0.19796   1.00
H3       1.06484    0.27698    0.10346   1.00
H3       1.08076    0.39265    0.14799   1.00
H3       1.05180    0.35183    0.08812   1.00
C4       0.74987    0.02083    0.24924   1.00
C4       0.75013    -0.02083   0.25076   1.00
C3       0.72630    0.04154    0.22235   1.00
C3       0.71573    -0.04321   0.24631   1.00
C3       0.77254    0.04357    0.27527   1.00
C3       0.78531    -0.04187   0.25588   1.00
C2       0.74808    0.10513    0.24762   1.00
C2       0.75166    -0.10514   0.25219   1.00
C3       0.72552    0.08285    0.22158   1.00
C3       0.71655    -0.08449   0.24709   1.00
C3       0.77162    0.08486    0.27441   1.00
C3a      0.78626    -0.08328   0.25667   1.00
H1       0.70860    0.02575    0.20148   1.00
H1       0.68788    -0.02875   0.24268   1.00
H1       0.70717    0.09760    0.20053   1.00
H1       0.68955    -0.10056   0.24376   1.00
H1       0.78922    0.10118    0.29494   1.00
C5       0.82474    -0.10380   0.26198   1.00
H1       0.81253    -0.02622   0.25908   1.00
H1       0.79056    0.02941    0.29703   1.00
H2       0.82077    -0.13599   0.26271   1.00
H2       0.84366    -0.09705   0.23652   1.00
N1       0.84355    -0.09125   0.29819   1.00
C6       0.82953    -0.09644   0.33453   1.00
C6       0.87814    -0.07288   0.30137   1.00
C6       0.85534    -0.08102   0.36128   1.00
C6       0.88626    -0.06604   0.34018   1.00
H3       0.80204    -0.11049   0.34130   1.00
H3       0.89654    -0.06484   0.27698   1.00
H3       0.85201    -0.08076   0.39265   1.00
H3       0.91188    -0.05180   0.35183   1.00
C4       0.74924    0.24987    0.02083   1.00
C4       0.75076    0.25013    -0.02083   1.00
C3       0.72235    0.22630    0.04154   1.00
C3       0.74631    0.21573    -0.04321   1.00
C3       0.77527    0.27254    0.04357   1.00
C3       0.75588    0.28531    -0.04187   1.00
C2       0.74762    0.24808    0.10513   1.00
C2       0.75219    0.25166    -0.10514   1.00
C3       0.72158    0.22552    0.08285   1.00
C3       0.74709    0.21655    -0.08449   1.00
C3       0.77441    0.27162    0.08486   1.00
C3a      0.75667    0.28626    -0.08328   1.00
H1       0.70148    0.20860    0.02575   1.00
H1       0.74268    0.18788    -0.02875   1.00
H1       0.70053    0.20717    0.09760   1.00
H1       0.74376    0.18955    -0.10056   1.00
H1       0.79494    0.28922    0.10118   1.00
C5       0.76198    0.32474    -0.10380   1.00
H1       0.75908    0.31253    -0.02622   1.00
H1       0.79703    0.29056    0.02941   1.00
H2       0.76271    0.32077    -0.13599   1.00
H2       0.73652    0.34366    -0.09705   1.00
N1       0.79819    0.34355    -0.09125   1.00
C6       0.83453    0.32953    -0.09644   1.00
C6       0.80137    0.37814    -0.07288   1.00
C6       0.86128    0.35534    -0.08102   1.00
C6       0.84018    0.38626    -0.06604   1.00
H3       0.84130    0.30204    -0.11049   1.00
H3       0.77698    0.39654    -0.06484   1.00
H3       0.89265    0.35201    -0.08076   1.00
H3       0.85183    0.41188    -0.05180   1.00
C4       0.91424    0.91513    1.14417   1.00
C4       0.91576    0.91487    1.18583   1.00
C3       0.88735    0.93870    1.12346   1.00
C3       0.91131    0.94927    1.20821   1.00
C3       0.94027    0.89246    1.12143   1.00
C3       0.92088    0.87969    1.20687   1.00
C2       0.91262    0.91692    1.05987   1.00
C2       0.91719    0.91334    1.27014   1.00
C3       0.88658    0.93948    1.08215   1.00
C3       0.91209    0.94845    1.24949   1.00
C3       0.93941    0.89338    1.08014   1.00
C3a      0.92167    0.87874    1.24828   1.00
H1       0.86648    0.95640    1.13925   1.00
H1       0.90768    0.97712    1.19375   1.00
H1       0.86553    0.95783    1.06740   1.00
H1       0.90876    0.97545    1.26556   1.00
H1       0.95994    0.87578    1.06382   1.00
C5       0.92698    0.84026    1.26880   1.00
H1       0.92408    0.85247    1.19122   1.00
H1       0.96203    0.87444    1.13559   1.00
H2       0.92771    0.84423    1.30099   1.00
H2       0.90152    0.82134    1.26205   1.00
N1       0.96319    0.82145    1.25625   1.00
C6       0.99953    0.83547    1.26144   1.00
C6       0.96637    0.78686    1.23788   1.00
C6       1.02628    0.80966    1.24602   1.00
C6       1.00518    0.77874    1.23104   1.00
H3       1.00630    0.86296    1.27549   1.00
H3       0.94198    0.76846    1.22984   1.00
H3       1.05765    0.81299    1.24576   1.00
H3       1.01683    0.75312    1.21680   1.00
C4       0.91513    1.14417    0.91424   1.00
C4       0.91487    1.18583    0.91576   1.00
C3       0.93870    1.12346    0.88735   1.00
C3       0.94927    1.20821    0.91131   1.00
C3       0.89246    1.12143    0.94027   1.00
C3       0.87969    1.20687    0.92088   1.00
C2       0.91692    1.05987    0.91262   1.00
C2       0.91334    1.27014    0.91719   1.00
C3       0.93948    1.08215    0.88658   1.00
C3       0.94845    1.24949    0.91209   1.00
C3       0.89338    1.08014    0.93941   1.00
C3a      0.87874    1.24828    0.92167   1.00
H1       0.95640    1.13925    0.86648   1.00
H1       0.97712    1.19375    0.90768   1.00
H1       0.95783    1.06740    0.86553   1.00
H1       0.97545    1.26556    0.90876   1.00
H1       0.87578    1.06382    0.95994   1.00
C5       0.84026    1.26880    0.92698   1.00
H1       0.85247    1.19122    0.92408   1.00
H1       0.87444    1.13559    0.96203   1.00
H2       0.84423    1.30099    0.92771   1.00
H2       0.82134    1.26205    0.90152   1.00
N1       0.82145    1.25625    0.96319   1.00
C6       0.83547    1.26144    0.99953   1.00
C6       0.78686    1.23788    0.96637   1.00
C6       0.80966    1.24602    1.02628   1.00
C6       0.77874    1.23104    1.00518   1.00
H3       0.86296    1.27549    1.00630   1.00
H3       0.76846    1.22984    0.94198   1.00
H3       0.81299    1.24576    1.05765   1.00
H3       0.75312    1.21680    1.01683   1.00
C4       0.68583    0.91424    0.91487   1.00
C4       0.64417    0.91576    0.91513   1.00
C3       0.70654    0.88735    0.89130   1.00
C3       0.62179    0.91131    0.88073   1.00
C3       0.70857    0.94027    0.93754   1.00
C3       0.62313    0.92088    0.95031   1.00
C2       0.77013    0.91262    0.91308   1.00
C2       0.55986    0.91719    0.91666   1.00
C3       0.74785    0.88658    0.89052   1.00
C3       0.58051    0.91209    0.88155   1.00
C3       0.74986    0.93941    0.93662   1.00
C3a      0.58172    0.92167    0.95126   1.00
H1       0.69075    0.86648    0.87360   1.00
H1       0.63625    0.90768    0.85288   1.00
H1       0.76260    0.86553    0.87217   1.00
H1       0.56444    0.90876    0.85455   1.00
H1       0.76618    0.95994    0.95422   1.00
C5       0.56120    0.92698    0.98974   1.00
H1       0.63878    0.92408    0.97753   1.00
H1       0.69441    0.96203    0.95556   1.00
H2       0.52901    0.92771    0.98577   1.00
H2       0.56795    0.90152    1.00866   1.00
N1       0.57375    0.96319    1.00855   1.00
C6       0.56856    0.99953    0.99453   1.00
C6       0.59212    0.96637    1.04314   1.00
C6       0.58398    1.02628    1.02034   1.00
C6       0.59896    1.00518    1.05126   1.00
H3       0.55451    1.00630    0.96704   1.00
H3       0.60016    0.94198    1.06154   1.00
H3       0.58424    1.05765    1.01701   1.00
H3       0.61320    1.01683    1.07688   1.00
C4       1.14417    0.91424    0.91513   1.00
C4       1.18583    0.91576    0.91487   1.00
C3       1.12346    0.88735    0.93870   1.00
C3       1.20821    0.91131    0.94927   1.00
C3       1.12143    0.94027    0.89246   1.00
C3       1.20687    0.92088    0.87969   1.00
C2       1.05987    0.91262    0.91692   1.00
C2       1.27014    0.91719    0.91334   1.00
C3       1.08215    0.88658    0.93948   1.00
C3       1.24949    0.91209    0.94845   1.00
C3       1.08014    0.93941    0.89338   1.00
C3a      1.24828    0.92167    0.87874   1.00
H1       1.13925    0.86648    0.95640   1.00
H1       1.19375    0.90768    0.97712   1.00
H1       1.06740    0.86553    0.95783   1.00
H1       1.26556    0.90876    0.97545   1.00
H1       1.06382    0.95994    0.87578   1.00
C5       1.26880    0.92698    0.84026   1.00
H1       1.19122    0.92408    0.85247   1.00
H1       1.13559    0.96203    0.87444   1.00
H2       1.30099    0.92771    0.84423   1.00
H2       1.26205    0.90152    0.82134   1.00
N1       1.25625    0.96319    0.82145   1.00
C6       1.26144    0.99953    0.83547   1.00
C6       1.23788    0.96637    0.78686   1.00
C6       1.24602    1.02628    0.80966   1.00
C6       1.23104    1.00518    0.77874   1.00
H3       1.27549    1.00630    0.86296   1.00
H3       1.22984    0.94198    0.76846   1.00
H3       1.24576    1.05765    0.81299   1.00
H3       1.21680    1.01683    0.75312   1.00
C4       0.91487    0.68583    0.91424   1.00
C4       0.91513    0.64417    0.91576   1.00
C3       0.89130    0.70654    0.88735   1.00
C3       0.88073    0.62179    0.91131   1.00
C3       0.93754    0.70857    0.94027   1.00
C3       0.95031    0.62313    0.92088   1.00
C2       0.91308    0.77013    0.91262   1.00
C2       0.91666    0.55986    0.91719   1.00
C3       0.89052    0.74785    0.88658   1.00
C3       0.88155    0.58051    0.91209   1.00
C3       0.93662    0.74986    0.93941   1.00
C3a      0.95126    0.58172    0.92167   1.00
H1       0.87360    0.69075    0.86648   1.00
H1       0.85288    0.63625    0.90768   1.00
H1       0.87217    0.76260    0.86553   1.00
H1       0.85455    0.56444    0.90876   1.00
H1       0.95422    0.76618    0.95994   1.00
C5       0.98974    0.56120    0.92698   1.00
H1       0.97753    0.63878    0.92408   1.00
H1       0.95556    0.69441    0.96203   1.00
H2       0.98577    0.52901    0.92771   1.00
H2       1.00866    0.56795    0.90152   1.00
N1       1.00855    0.57375    0.96319   1.00
C6       0.99453    0.56856    0.99953   1.00
C6       1.04314    0.59212    0.96637   1.00
C6       1.02034    0.58398    1.02628   1.00
C6       1.05126    0.59896    1.00518   1.00
H3       0.96704    0.55451    1.00630   1.00
H3       1.06154    0.60016    0.94198   1.00
H3       1.01701    0.58424    1.05765   1.00
H3       1.07688    0.61320    1.01683   1.00
C4       0.91424    0.91487    0.68583   1.00
C4       0.91576    0.91513    0.64417   1.00
C3       0.88735    0.89130    0.70654   1.00
C3       0.91131    0.88073    0.62179   1.00
C3       0.94027    0.93754    0.70857   1.00
C3       0.92088    0.95031    0.62313   1.00
C2       0.91262    0.91308    0.77013   1.00
C2       0.91719    0.91666    0.55986   1.00
C3       0.88658    0.89052    0.74785   1.00
C3       0.91209    0.88155    0.58051   1.00
C3       0.93941    0.93662    0.74986   1.00
C3a      0.92167    0.95126    0.58172   1.00
H1       0.86648    0.87360    0.69075   1.00
H1       0.90768    0.85288    0.63625   1.00
H1       0.86553    0.87217    0.76260   1.00
H1       0.90876    0.85455    0.56444   1.00
H1       0.95994    0.95422    0.76618   1.00
C5       0.92698    0.98974    0.56120   1.00
H1       0.92408    0.97753    0.63878   1.00
H1       0.96203    0.95556    0.69441   1.00
H2       0.92771    0.98577    0.52901   1.00
H2       0.90152    1.00866    0.56795   1.00
N1       0.96319    1.00855    0.57375   1.00
C6       0.99953    0.99453    0.56856   1.00
C6       0.96637    1.04314    0.59212   1.00
C6       1.02628    1.02034    0.58398   1.00
C6       1.00518    1.05126    0.59896   1.00
H3       1.00630    0.96704    0.55451   1.00
H3       0.94198    1.06154    0.60016   1.00
H3       1.05765    1.01701    0.58424   1.00
H3       1.01683    1.07688    0.61320   1.00
C4       0.41424    0.41513    1.14417   1.00
C4       0.41576    0.41487    1.18583   1.00
C3       0.38735    0.43870    1.12346   1.00
C3       0.41131    0.44927    1.20821   1.00
C3       0.44027    0.39246    1.12143   1.00
C3       0.42088    0.37969    1.20687   1.00
C2       0.41262    0.41692    1.05987   1.00
C2       0.41719    0.41334    1.27014   1.00
C3       0.38658    0.43948    1.08215   1.00
C3       0.41209    0.44845    1.24949   1.00
C3       0.43941    0.39338    1.08014   1.00
C3a      0.42167    0.37874    1.24828   1.00
H1       0.36648    0.45640    1.13925   1.00
H1       0.40768    0.47712    1.19375   1.00
H1       0.36553    0.45783    1.06740   1.00
H1       0.40876    0.47545    1.26556   1.00
H1       0.45994    0.37578    1.06382   1.00
C5       0.42698    0.34026    1.26880   1.00
H1       0.42408    0.35247    1.19122   1.00
H1       0.46203    0.37444    1.13559   1.00
H2       0.42771    0.34423    1.30099   1.00
H2       0.40152    0.32134    1.26205   1.00
N1       0.46319    0.32145    1.25625   1.00
C6       0.49953    0.33547    1.26144   1.00
C6       0.46637    0.28686    1.23788   1.00
C6       0.52628    0.30966    1.24602   1.00
C6       0.50518    0.27874    1.23104   1.00
H3       0.50630    0.36296    1.27549   1.00
H3       0.44198    0.26846    1.22984   1.00
H3       0.55765    0.31299    1.24576   1.00
H3       0.51683    0.25312    1.21680   1.00
C4       0.41513    0.64417    0.91424   1.00
C4       0.41487    0.68583    0.91576   1.00
C3       0.43870    0.62346    0.88735   1.00
C3       0.44927    0.70821    0.91131   1.00
C3       0.39246    0.62143    0.94027   1.00
C3       0.37969    0.70687    0.92088   1.00
C2       0.41692    0.55987    0.91262   1.00
C2       0.41334    0.77014    0.91719   1.00
C3       0.43948    0.58215    0.88658   1.00
C3       0.44845    0.74949    0.91209   1.00
C3       0.39338    0.58014    0.93941   1.00
C3a      0.37874    0.74828    0.92167   1.00
H1       0.45640    0.63925    0.86648   1.00
H1       0.47712    0.69375    0.90768   1.00
H1       0.45783    0.56740    0.86553   1.00
H1       0.47545    0.76556    0.90876   1.00
H1       0.37578    0.56382    0.95994   1.00
C5       0.34026    0.76880    0.92698   1.00
H1       0.35247    0.69122    0.92408   1.00
H1       0.37444    0.63559    0.96203   1.00
H2       0.34423    0.80099    0.92771   1.00
H2       0.32134    0.76205    0.90152   1.00
N1       0.32145    0.75625    0.96319   1.00
C6       0.33547    0.76144    0.99953   1.00
C6       0.28686    0.73788    0.96637   1.00
C6       0.30966    0.74602    1.02628   1.00
C6       0.27874    0.73104    1.00518   1.00
H3       0.36296    0.77549    1.00630   1.00
H3       0.26846    0.72984    0.94198   1.00
H3       0.31299    0.74576    1.05765   1.00
H3       0.25312    0.71680    1.01683   1.00
C4       0.18583    0.41424    0.91487   1.00
C4       0.14417    0.41576    0.91513   1.00
C3       0.20654    0.38735    0.89130   1.00
C3       0.12179    0.41131    0.88073   1.00
C3       0.20857    0.44027    0.93754   1.00
C3       0.12313    0.42088    0.95031   1.00
C2       0.27013    0.41262    0.91308   1.00
C2       0.05986    0.41719    0.91666   1.00
C3       0.24785    0.38658    0.89052   1.00
C3       0.08051    0.41209    0.88155   1.00
C3       0.24986    0.43941    0.93662   1.00
C3a      0.08172    0.42167    0.95126   1.00
H1       0.19075    0.36648    0.87360   1.00
H1       0.13625    0.40768    0.85288   1.00
H1       0.26260    0.36553    0.87217   1.00
H1       0.06444    0.40876    0.85455   1.00
H1       0.26618    0.45994    0.95422   1.00
C5       0.06120    0.42698    0.98974   1.00
H1       0.13878    0.42408    0.97753   1.00
H1       0.19441    0.46203    0.95556   1.00
H2       0.02901    0.42771    0.98577   1.00
H2       0.06795    0.40152    1.00866   1.00
N1       0.07375    0.46319    1.00855   1.00
C6       0.06856    0.49953    0.99453   1.00
C6       0.09212    0.46637    1.04314   1.00
C6       0.08398    0.52628    1.02034   1.00
C6       0.09896    0.50518    1.05126   1.00
H3       0.05451    0.50630    0.96704   1.00
H3       0.10016    0.44198    1.06154   1.00
H3       0.08424    0.55765    1.01701   1.00
H3       0.11320    0.51683    1.07688   1.00
C4       0.64417    0.41424    0.91513   1.00
C4       0.68583    0.41576    0.91487   1.00
C3       0.62346    0.38735    0.93870   1.00
C3       0.70821    0.41131    0.94927   1.00
C3       0.62143    0.44027    0.89246   1.00
C3       0.70687    0.42088    0.87969   1.00
C2       0.55987    0.41262    0.91692   1.00
C2       0.77014    0.41719    0.91334   1.00
C3       0.58215    0.38658    0.93948   1.00
C3       0.74949    0.41209    0.94845   1.00
C3       0.58014    0.43941    0.89338   1.00
C3a      0.74828    0.42167    0.87874   1.00
H1       0.63925    0.36648    0.95640   1.00
H1       0.69375    0.40768    0.97712   1.00
H1       0.56740    0.36553    0.95783   1.00
H1       0.76556    0.40876    0.97545   1.00
H1       0.56382    0.45994    0.87578   1.00
C5       0.76880    0.42698    0.84026   1.00
H1       0.69122    0.42408    0.85247   1.00
H1       0.63559    0.46203    0.87444   1.00
H2       0.80099    0.42771    0.84423   1.00
H2       0.76205    0.40152    0.82134   1.00
N1       0.75625    0.46319    0.82145   1.00
C6       0.76144    0.49953    0.83547   1.00
C6       0.73788    0.46637    0.78686   1.00
C6       0.74602    0.52628    0.80966   1.00
C6       0.73104    0.50518    0.77874   1.00
H3       0.77549    0.50630    0.86296   1.00
H3       0.72984    0.44198    0.76846   1.00
H3       0.74576    0.55765    0.81299   1.00
H3       0.71680    0.51683    0.75312   1.00
C4       0.41487    0.18583    0.91424   1.00
C4       0.41513    0.14417    0.91576   1.00
C3       0.39130    0.20654    0.88735   1.00
C3       0.38073    0.12179    0.91131   1.00
C3       0.43754    0.20857    0.94027   1.00
C3       0.45031    0.12313    0.92088   1.00
C2       0.41308    0.27013    0.91262   1.00
C2       0.41666    0.05986    0.91719   1.00
C3       0.39052    0.24785    0.88658   1.00
C3       0.38155    0.08051    0.91209   1.00
C3       0.43662    0.24986    0.93941   1.00
C3a      0.45126    0.08172    0.92167   1.00
H1       0.37360    0.19075    0.86648   1.00
H1       0.35288    0.13625    0.90768   1.00
H1       0.37217    0.26260    0.86553   1.00
H1       0.35455    0.06444    0.90876   1.00
H1       0.45422    0.26618    0.95994   1.00
C5       0.48974    0.06120    0.92698   1.00
H1       0.47753    0.13878    0.92408   1.00
H1       0.45556    0.19441    0.96203   1.00
H2       0.48577    0.02901    0.92771   1.00
H2       0.50866    0.06795    0.90152   1.00
N1       0.50855    0.07375    0.96319   1.00
C6       0.49453    0.06856    0.99953   1.00
C6       0.54314    0.09212    0.96637   1.00
C6       0.52034    0.08398    1.02628   1.00
C6       0.55126    0.09896    1.00518   1.00
H3       0.46704    0.05451    1.00630   1.00
H3       0.56154    0.10016    0.94198   1.00
H3       0.51701    0.08424    1.05765   1.00
H3       0.57688    0.11320    1.01683   1.00
C4       0.41424    0.41487    0.68583   1.00
C4       0.41576    0.41513    0.64417   1.00
C3       0.38735    0.39130    0.70654   1.00
C3       0.41131    0.38073    0.62179   1.00
C3       0.44027    0.43754    0.70857   1.00
C3       0.42088    0.45031    0.62313   1.00
C2       0.41262    0.41308    0.77013   1.00
C2       0.41719    0.41666    0.55986   1.00
C3       0.38658    0.39052    0.74785   1.00
C3       0.41209    0.38155    0.58051   1.00
C3       0.43941    0.43662    0.74986   1.00
C3a      0.42167    0.45126    0.58172   1.00
H1       0.36648    0.37360    0.69075   1.00
H1       0.40768    0.35288    0.63625   1.00
H1       0.36553    0.37217    0.76260   1.00
H1       0.40876    0.35455    0.56444   1.00
H1       0.45994    0.45422    0.76618   1.00
C5       0.42698    0.48974    0.56120   1.00
H1       0.42408    0.47753    0.63878   1.00
H1       0.46203    0.45556    0.69441   1.00
H2       0.42771    0.48577    0.52901   1.00
H2       0.40152    0.50866    0.56795   1.00
N1       0.46319    0.50855    0.57375   1.00
C6       0.49953    0.49453    0.56856   1.00
C6       0.46637    0.54314    0.59212   1.00
C6       0.52628    0.52034    0.58398   1.00
C6       0.50518    0.55126    0.59896   1.00
H3       0.50630    0.46704    0.55451   1.00
H3       0.44198    0.56154    0.60016   1.00
H3       0.55765    0.51701    0.58424   1.00
H3       0.51683    0.57688    0.61320   1.00
C4       0.41424    0.91513    0.64417   1.00
C4       0.41576    0.91487    0.68583   1.00
C3       0.38735    0.93870    0.62346   1.00
C3       0.41131    0.94927    0.70821   1.00
C3       0.44027    0.89246    0.62143   1.00
C3       0.42088    0.87969    0.70687   1.00
C2       0.41262    0.91692    0.55987   1.00
C2       0.41719    0.91334    0.77014   1.00
C3       0.38658    0.93948    0.58215   1.00
C3       0.41209    0.94845    0.74949   1.00
C3       0.43941    0.89338    0.58014   1.00
C3a      0.42167    0.87874    0.74828   1.00
H1       0.36648    0.95640    0.63925   1.00
H1       0.40768    0.97712    0.69375   1.00
H1       0.36553    0.95783    0.56740   1.00
H1       0.40876    0.97545    0.76556   1.00
H1       0.45994    0.87578    0.56382   1.00
C5       0.42698    0.84026    0.76880   1.00
H1       0.42408    0.85247    0.69122   1.00
H1       0.46203    0.87444    0.63559   1.00
H2       0.42771    0.84423    0.80099   1.00
H2       0.40152    0.82134    0.76205   1.00
N1       0.46319    0.82145    0.75625   1.00
C6       0.49953    0.83547    0.76144   1.00
C6       0.46637    0.78686    0.73788   1.00
C6       0.52628    0.80966    0.74602   1.00
C6       0.50518    0.77874    0.73104   1.00
H3       0.50630    0.86296    0.77549   1.00
H3       0.44198    0.76846    0.72984   1.00
H3       0.55765    0.81299    0.74576   1.00
H3       0.51683    0.75312    0.71680   1.00
C4       0.41513    1.14417    0.41424   1.00
C4       0.41487    1.18583    0.41576   1.00
C3       0.43870    1.12346    0.38735   1.00
C3       0.44927    1.20821    0.41131   1.00
C3       0.39246    1.12143    0.44027   1.00
C3       0.37969    1.20687    0.42088   1.00
C2       0.41692    1.05987    0.41262   1.00
C2       0.41334    1.27014    0.41719   1.00
C3       0.43948    1.08215    0.38658   1.00
C3       0.44845    1.24949    0.41209   1.00
C3       0.39338    1.08014    0.43941   1.00
C3a      0.37874    1.24828    0.42167   1.00
H1       0.45640    1.13925    0.36648   1.00
H1       0.47712    1.19375    0.40768   1.00
H1       0.45783    1.06740    0.36553   1.00
H1       0.47545    1.26556    0.40876   1.00
H1       0.37578    1.06382    0.45994   1.00
C5       0.34026    1.26880    0.42698   1.00
H1       0.35247    1.19122    0.42408   1.00
H1       0.37444    1.13559    0.46203   1.00
H2       0.34423    1.30099    0.42771   1.00
H2       0.32134    1.26205    0.40152   1.00
N1       0.32145    1.25625    0.46319   1.00
C6       0.33547    1.26144    0.49953   1.00
C6       0.28686    1.23788    0.46637   1.00
C6       0.30966    1.24602    0.52628   1.00
C6       0.27874    1.23104    0.50518   1.00
H3       0.36296    1.27549    0.50630   1.00
H3       0.26846    1.22984    0.44198   1.00
H3       0.31299    1.24576    0.55765   1.00
H3       0.25312    1.21680    0.51683   1.00
C4       0.18583    0.91424    0.41487   1.00
C4       0.14417    0.91576    0.41513   1.00
C3       0.20654    0.88735    0.39130   1.00
C3       0.12179    0.91131    0.38073   1.00
C3       0.20857    0.94027    0.43754   1.00
C3       0.12313    0.92088    0.45031   1.00
C2       0.27013    0.91262    0.41308   1.00
C2       0.05986    0.91719    0.41666   1.00
C3       0.24785    0.88658    0.39052   1.00
C3       0.08051    0.91209    0.38155   1.00
C3       0.24986    0.93941    0.43662   1.00
C3a      0.08172    0.92167    0.45126   1.00
H1       0.19075    0.86648    0.37360   1.00
H1       0.13625    0.90768    0.35288   1.00
H1       0.26260    0.86553    0.37217   1.00
H1       0.06444    0.90876    0.35455   1.00
H1       0.26618    0.95994    0.45422   1.00
C5       0.06120    0.92698    0.48974   1.00
H1       0.13878    0.92408    0.47753   1.00
H1       0.19441    0.96203    0.45556   1.00
H2       0.02901    0.92771    0.48577   1.00
H2       0.06795    0.90152    0.50866   1.00
N1       0.07375    0.96319    0.50855   1.00
C6       0.06856    0.99953    0.49453   1.00
C6       0.09212    0.96637    0.54314   1.00
C6       0.08398    1.02628    0.52034   1.00
C6       0.09896    1.00518    0.55126   1.00
H3       0.05451    1.00630    0.46704   1.00
H3       0.10016    0.94198    0.56154   1.00
H3       0.08424    1.05765    0.51701   1.00
H3       0.11320    1.01683    0.57688   1.00
C4       0.64417    0.91424    0.41513   1.00
C4       0.68583    0.91576    0.41487   1.00
C3       0.62346    0.88735    0.43870   1.00
C3       0.70821    0.91131    0.44927   1.00
C3       0.62143    0.94027    0.39246   1.00
C3       0.70687    0.92088    0.37969   1.00
C2       0.55987    0.91262    0.41692   1.00
C2       0.77014    0.91719    0.41334   1.00
C3       0.58215    0.88658    0.43948   1.00
C3       0.74949    0.91209    0.44845   1.00
C3       0.58014    0.93941    0.39338   1.00
C3a      0.74828    0.92167    0.37874   1.00
H1       0.63925    0.86648    0.45640   1.00
H1       0.69375    0.90768    0.47712   1.00
H1       0.56740    0.86553    0.45783   1.00
H1       0.76556    0.90876    0.47545   1.00
H1       0.56382    0.95994    0.37578   1.00
C5       0.76880    0.92698    0.34026   1.00
H1       0.69122    0.92408    0.35247   1.00
H1       0.63559    0.96203    0.37444   1.00
H2       0.80099    0.92771    0.34423   1.00
H2       0.76205    0.90152    0.32134   1.00
N1       0.75625    0.96319    0.32145   1.00
C6       0.76144    0.99953    0.33547   1.00
C6       0.73788    0.96637    0.28686   1.00
C6       0.74602    1.02628    0.30966   1.00
C6       0.73104    1.00518    0.27874   1.00
H3       0.77549    1.00630    0.36296   1.00
H3       0.72984    0.94198    0.26846   1.00
H3       0.74576    1.05765    0.31299   1.00
H3       0.71680    1.01683    0.25312   1.00
C4       0.41487    0.68583    0.41424   1.00
C4       0.41513    0.64417    0.41576   1.00
C3       0.39130    0.70654    0.38735   1.00
C3       0.38073    0.62179    0.41131   1.00
C3       0.43754    0.70857    0.44027   1.00
C3       0.45031    0.62313    0.42088   1.00
C2       0.41308    0.77013    0.41262   1.00
C2       0.41666    0.55986    0.41719   1.00
C3       0.39052    0.74785    0.38658   1.00
C3       0.38155    0.58051    0.41209   1.00
C3       0.43662    0.74986    0.43941   1.00
C3a      0.45126    0.58172    0.42167   1.00
H1       0.37360    0.69075    0.36648   1.00
H1       0.35288    0.63625    0.40768   1.00
H1       0.37217    0.76260    0.36553   1.00
H1       0.35455    0.56444    0.40876   1.00
H1       0.45422    0.76618    0.45994   1.00
C5       0.48974    0.56120    0.42698   1.00
H1       0.47753    0.63878    0.42408   1.00
H1       0.45556    0.69441    0.46203   1.00
H2       0.48577    0.52901    0.42771   1.00
H2       0.50866    0.56795    0.40152   1.00
N1       0.50855    0.57375    0.46319   1.00
C6       0.49453    0.56856    0.49953   1.00
C6       0.54314    0.59212    0.46637   1.00
C6       0.52034    0.58398    0.52628   1.00
C6       0.55126    0.59896    0.50518   1.00
H3       0.46704    0.55451    0.50630   1.00
H3       0.56154    0.60016    0.44198   1.00
H3       0.51701    0.58424    0.55765   1.00
H3       0.57688    0.61320    0.51683   1.00
C4       0.41424    0.91487    0.18583   1.00
C4       0.41576    0.91513    0.14417   1.00
C3       0.38735    0.89130    0.20654   1.00
C3       0.41131    0.88073    0.12179   1.00
C3       0.44027    0.93754    0.20857   1.00
C3       0.42088    0.95031    0.12313   1.00
C2       0.41262    0.91308    0.27013   1.00
C2       0.41719    0.91666    0.05986   1.00
C3       0.38658    0.89052    0.24785   1.00
C3       0.41209    0.88155    0.08051   1.00
C3       0.43941    0.93662    0.24986   1.00
C3a      0.42167    0.95126    0.08172   1.00
H1       0.36648    0.87360    0.19075   1.00
H1       0.40768    0.85288    0.13625   1.00
H1       0.36553    0.87217    0.26260   1.00
H1       0.40876    0.85455    0.06444   1.00
H1       0.45994    0.95422    0.26618   1.00
C5       0.42698    0.98974    0.06120   1.00
H1       0.42408    0.97753    0.13878   1.00
H1       0.46203    0.95556    0.19441   1.00
H2       0.42771    0.98577    0.02901   1.00
H2       0.40152    1.00866    0.06795   1.00
N1       0.46319    1.00855    0.07375   1.00
C6       0.49953    0.99453    0.06856   1.00
C6       0.46637    1.04314    0.09212   1.00
C6       0.52628    1.02034    0.08398   1.00
C6       0.50518    1.05126    0.09896   1.00
H3       0.50630    0.96704    0.05451   1.00
H3       0.44198    1.06154    0.10016   1.00
H3       0.55765    1.01701    0.08424   1.00
H3       0.51683    1.07688    0.11320   1.00
C4       0.91424    0.41513    0.64417   1.00
C4       0.91576    0.41487    0.68583   1.00
C3       0.88735    0.43870    0.62346   1.00
C3       0.91131    0.44927    0.70821   1.00
C3       0.94027    0.39246    0.62143   1.00
C3       0.92088    0.37969    0.70687   1.00
C2       0.91262    0.41692    0.55987   1.00
C2       0.91719    0.41334    0.77014   1.00
C3       0.88658    0.43948    0.58215   1.00
C3       0.91209    0.44845    0.74949   1.00
C3       0.93941    0.39338    0.58014   1.00
C3a      0.92167    0.37874    0.74828   1.00
H1       0.86648    0.45640    0.63925   1.00
H1       0.90768    0.47712    0.69375   1.00
H1       0.86553    0.45783    0.56740   1.00
H1       0.90876    0.47545    0.76556   1.00
H1       0.95994    0.37578    0.56382   1.00
C5       0.92698    0.34026    0.76880   1.00
H1       0.92408    0.35247    0.69122   1.00
H1       0.96203    0.37444    0.63559   1.00
H2       0.92771    0.34423    0.80099   1.00
H2       0.90152    0.32134    0.76205   1.00
N1       0.96319    0.32145    0.75625   1.00
C6       0.99953    0.33547    0.76144   1.00
C6       0.96637    0.28686    0.73788   1.00
C6       1.02628    0.30966    0.74602   1.00
C6       1.00518    0.27874    0.73104   1.00
H3       1.00630    0.36296    0.77549   1.00
H3       0.94198    0.26846    0.72984   1.00
H3       1.05765    0.31299    0.74576   1.00
H3       1.01683    0.25312    0.71680   1.00
C4       0.91513    0.64417    0.41424   1.00
C4       0.91487    0.68583    0.41576   1.00
C3       0.93870    0.62346    0.38735   1.00
C3       0.94927    0.70821    0.41131   1.00
C3       0.89246    0.62143    0.44027   1.00
C3       0.87969    0.70687    0.42088   1.00
C2       0.91692    0.55987    0.41262   1.00
C2       0.91334    0.77014    0.41719   1.00
C3       0.93948    0.58215    0.38658   1.00
C3       0.94845    0.74949    0.41209   1.00
C3       0.89338    0.58014    0.43941   1.00
C3a      0.87874    0.74828    0.42167   1.00
H1       0.95640    0.63925    0.36648   1.00
H1       0.97712    0.69375    0.40768   1.00
H1       0.95783    0.56740    0.36553   1.00
H1       0.97545    0.76556    0.40876   1.00
H1       0.87578    0.56382    0.45994   1.00
C5       0.84026    0.76880    0.42698   1.00
H1       0.85247    0.69122    0.42408   1.00
H1       0.87444    0.63559    0.46203   1.00
H2       0.84423    0.80099    0.42771   1.00
H2       0.82134    0.76205    0.40152   1.00
N1       0.82145    0.75625    0.46319   1.00
C6       0.83547    0.76144    0.49953   1.00
C6       0.78686    0.73788    0.46637   1.00
C6       0.80966    0.74602    0.52628   1.00
C6       0.77874    0.73104    0.50518   1.00
H3       0.86296    0.77549    0.50630   1.00
H3       0.76846    0.72984    0.44198   1.00
H3       0.81299    0.74576    0.55765   1.00
H3       0.75312    0.71680    0.51683   1.00
C4       0.68583    0.41424    0.41487   1.00
C4       0.64417    0.41576    0.41513   1.00
C3       0.70654    0.38735    0.39130   1.00
C3       0.62179    0.41131    0.38073   1.00
C3       0.70857    0.44027    0.43754   1.00
C3       0.62313    0.42088    0.45031   1.00
C2       0.77013    0.41262    0.41308   1.00
C2       0.55986    0.41719    0.41666   1.00
C3       0.74785    0.38658    0.39052   1.00
C3       0.58051    0.41209    0.38155   1.00
C3       0.74986    0.43941    0.43662   1.00
C3a      0.58172    0.42167    0.45126   1.00
H1       0.69075    0.36648    0.37360   1.00
H1       0.63625    0.40768    0.35288   1.00
H1       0.76260    0.36553    0.37217   1.00
H1       0.56444    0.40876    0.35455   1.00
H1       0.76618    0.45994    0.45422   1.00
C5       0.56120    0.42698    0.48974   1.00
H1       0.63878    0.42408    0.47753   1.00
H1       0.69441    0.46203    0.45556   1.00
H2       0.52901    0.42771    0.48577   1.00
H2       0.56795    0.40152    0.50866   1.00
N1       0.57375    0.46319    0.50855   1.00
C6       0.56856    0.49953    0.49453   1.00
C6       0.59212    0.46637    0.54314   1.00
C6       0.58398    0.52628    0.52034   1.00
C6       0.59896    0.50518    0.55126   1.00
H3       0.55451    0.50630    0.46704   1.00
H3       0.60016    0.44198    0.56154   1.00
H3       0.58424    0.55765    0.51701   1.00
H3       0.61320    0.51683    0.57688   1.00
C4       1.14417    0.41424    0.41513   1.00
C4       1.18583    0.41576    0.41487   1.00
C3       1.12346    0.38735    0.43870   1.00
C3       1.20821    0.41131    0.44927   1.00
C3       1.12143    0.44027    0.39246   1.00
C3       1.20687    0.42088    0.37969   1.00
C2       1.05987    0.41262    0.41692   1.00
C2       1.27014    0.41719    0.41334   1.00
C3       1.08215    0.38658    0.43948   1.00
C3       1.24949    0.41209    0.44845   1.00
C3       1.08014    0.43941    0.39338   1.00
C3a      1.24828    0.42167    0.37874   1.00
H1       1.13925    0.36648    0.45640   1.00
H1       1.19375    0.40768    0.47712   1.00
H1       1.06740    0.36553    0.45783   1.00
H1       1.26556    0.40876    0.47545   1.00
H1       1.06382    0.45994    0.37578   1.00
C5       1.26880    0.42698    0.34026   1.00
H1       1.19122    0.42408    0.35247   1.00
H1       1.13559    0.46203    0.37444   1.00
H2       1.30099    0.42771    0.34423   1.00
H2       1.26205    0.40152    0.32134   1.00
N1       1.25625    0.46319    0.32145   1.00
C6       1.26144    0.49953    0.33547   1.00
C6       1.23788    0.46637    0.28686   1.00
C6       1.24602    0.52628    0.30966   1.00
C6       1.23104    0.50518    0.27874   1.00
H3       1.27549    0.50630    0.36296   1.00
H3       1.22984    0.44198    0.26846   1.00
H3       1.24576    0.55765    0.31299   1.00
H3       1.21680    0.51683    0.25312   1.00
C4       0.91487    0.18583    0.41424   1.00
C4       0.91513    0.14417    0.41576   1.00
C3       0.89130    0.20654    0.38735   1.00
C3       0.88073    0.12179    0.41131   1.00
C3       0.93754    0.20857    0.44027   1.00
C3       0.95031    0.12313    0.42088   1.00
C2       0.91308    0.27013    0.41262   1.00
C2       0.91666    0.05986    0.41719   1.00
C3       0.89052    0.24785    0.38658   1.00
C3       0.88155    0.08051    0.41209   1.00
C3       0.93662    0.24986    0.43941   1.00
C3a      0.95126    0.08172    0.42167   1.00
H1       0.87360    0.19075    0.36648   1.00
H1       0.85288    0.13625    0.40768   1.00
H1       0.87217    0.26260    0.36553   1.00
H1       0.85455    0.06444    0.40876   1.00
H1       0.95422    0.26618    0.45994   1.00
C5       0.98974    0.06120    0.42698   1.00
H1       0.97753    0.13878    0.42408   1.00
H1       0.95556    0.19441    0.46203   1.00
H2       0.98577    0.02901    0.42771   1.00
H2       1.00866    0.06795    0.40152   1.00
N1       1.00855    0.07375    0.46319   1.00
C6       0.99453    0.06856    0.49953   1.00
C6       1.04314    0.09212    0.46637   1.00
C6       1.02034    0.08398    0.52628   1.00
C6       1.05126    0.09896    0.50518   1.00
H3       0.96704    0.05451    0.50630   1.00
H3       1.06154    0.10016    0.44198   1.00
H3       1.01701    0.08424    0.55765   1.00
H3       1.07688    0.11320    0.51683   1.00
C4       0.91424    0.41487    0.18583   1.00
C4       0.91576    0.41513    0.14417   1.00
C3       0.88735    0.39130    0.20654   1.00
C3       0.91131    0.38073    0.12179   1.00
C3       0.94027    0.43754    0.20857   1.00
C3       0.92088    0.45031    0.12313   1.00
C2       0.91262    0.41308    0.27013   1.00
C2       0.91719    0.41666    0.05986   1.00
C3       0.88658    0.39052    0.24785   1.00
C3       0.91209    0.38155    0.08051   1.00
C3       0.93941    0.43662    0.24986   1.00
C3a      0.92167    0.45126    0.08172   1.00
H1       0.86648    0.37360    0.19075   1.00
H1       0.90768    0.35288    0.13625   1.00
H1       0.86553    0.37217    0.26260   1.00
H1       0.90876    0.35455    0.06444   1.00
H1       0.95994    0.45422    0.26618   1.00
C5       0.92698    0.48974    0.06120   1.00
H1       0.92408    0.47753    0.13878   1.00
H1       0.96203    0.45556    0.19441   1.00
H2       0.92771    0.48577    0.02901   1.00
H2       0.90152    0.50866    0.06795   1.00
N1       0.96319    0.50855    0.07375   1.00
C6       0.99953    0.49453    0.06856   1.00
C6       0.96637    0.54314    0.09212   1.00
C6       1.02628    0.52034    0.08398   1.00
C6       1.00518    0.55126    0.09896   1.00
H3       1.00630    0.46704    0.05451   1.00
H3       0.94198    0.56154    0.10016   1.00
H3       1.05765    0.51701    0.08424   1.00
H3       1.01683    0.57688    0.11320   1.00
