data_IRMOF10_SG202_interpen_Ligand11cp_label_l.

_audit_creation_method             'generated by an auxiliary program of Tobunporous'

_symmetry_space_group_name_H-M     'P 1'
_symmetry_Int_Tables_number        1
_symmetry_cell_setting             triclinic

_cell_length_a                    34.2800
_cell_length_b                    34.2800
_cell_length_c                    34.2800
_cell_angle_alpha                 90.0000
_cell_angle_beta                  90.0000
_cell_angle_gamma                 90.0000

loop_
_atom_site_label
_atom_site_fract_x
_atom_site_fract_y
_atom_site_fract_z
_atom_site_occupancy
O1       0.75000    0.75000    0.75000   1.00
Zn1      0.71720    0.78280    0.78280   1.00
Zn1      0.78280    0.71720    0.78280   1.00
Zn1      0.78280    0.78280    0.71720   1.00
Zn1      0.71720    0.71720    0.71720   1.00
O2       0.72650    0.77350    0.83820   1.00
O2       0.72650    0.83820    0.77350   1.00
O2       0.66180    0.77350    0.77350   1.00
O2       0.77350    0.72650    0.83820   1.00
O2       0.83820    0.72650    0.77350   1.00
O2       0.77350    0.66180    0.77350   1.00
O2       0.77350    0.83820    0.72650   1.00
O2       0.83820    0.77350    0.72650   1.00
O2       0.77350    0.77350    0.66180   1.00
O2       0.66180    0.72650    0.72650   1.00
O2       0.72650    0.66180    0.72650   1.00
O2       0.72650    0.72650    0.66180   1.00
C1       0.75000    0.75000    0.85520   1.00
C1       0.75000    0.85520    0.75000   1.00
C1       0.64480    0.75000    0.75000   1.00
C1       0.85520    0.75000    0.75000   1.00
C1       0.75000    0.64480    0.75000   1.00
C1       0.75000    0.75000    0.64480   1.00
O1       0.25000    0.25000    0.75000   1.00
Zn1      0.21720    0.28280    0.78280   1.00
Zn1      0.28280    0.21720    0.78280   1.00
Zn1      0.28280    0.28280    0.71720   1.00
Zn1      0.21720    0.21720    0.71720   1.00
O2       0.22650    0.27350    0.83820   1.00
O2       0.22650    0.33820    0.77350   1.00
O2       0.16180    0.27350    0.77350   1.00
O2       0.27350    0.22650    0.83820   1.00
O2       0.33820    0.22650    0.77350   1.00
O2       0.27350    0.16180    0.77350   1.00
O2       0.27350    0.33820    0.72650   1.00
O2       0.33820    0.27350    0.72650   1.00
O2       0.27350    0.27350    0.66180   1.00
O2       0.16180    0.22650    0.72650   1.00
O2       0.22650    0.16180    0.72650   1.00
O2       0.22650    0.22650    0.66180   1.00
C1       0.25000    0.25000    0.85520   1.00
C1       0.25000    0.35520    0.75000   1.00
C1       0.14480    0.25000    0.75000   1.00
C1       0.35520    0.25000    0.75000   1.00
C1       0.25000    0.14480    0.75000   1.00
C1       0.25000    0.25000    0.64480   1.00
O1       0.25000    0.75000    0.25000   1.00
Zn1      0.21720    0.78280    0.28280   1.00
Zn1      0.28280    0.71720    0.28280   1.00
Zn1      0.28280    0.78280    0.21720   1.00
Zn1      0.21720    0.71720    0.21720   1.00
O2       0.22650    0.77350    0.33820   1.00
O2       0.22650    0.83820    0.27350   1.00
O2       0.16180    0.77350    0.27350   1.00
O2       0.27350    0.72650    0.33820   1.00
O2       0.33820    0.72650    0.27350   1.00
O2       0.27350    0.66180    0.27350   1.00
O2       0.27350    0.83820    0.22650   1.00
O2       0.33820    0.77350    0.22650   1.00
O2       0.27350    0.77350    0.16180   1.00
O2       0.16180    0.72650    0.22650   1.00
O2       0.22650    0.66180    0.22650   1.00
O2       0.22650    0.72650    0.16180   1.00
C1       0.25000    0.75000    0.35520   1.00
C1       0.25000    0.85520    0.25000   1.00
C1       0.14480    0.75000    0.25000   1.00
C1       0.35520    0.75000    0.25000   1.00
C1       0.25000    0.64480    0.25000   1.00
C1       0.25000    0.75000    0.14480   1.00
O1       0.75000    0.25000    0.25000   1.00
Zn1      0.71720    0.28280    0.28280   1.00
Zn1      0.78280    0.21720    0.28280   1.00
Zn1      0.78280    0.28280    0.21720   1.00
Zn1      0.71720    0.21720    0.21720   1.00
O2       0.72650    0.27350    0.33820   1.00
O2       0.72650    0.33820    0.27350   1.00
O2       0.66180    0.27350    0.27350   1.00
O2       0.77350    0.22650    0.33820   1.00
O2       0.83820    0.22650    0.27350   1.00
O2       0.77350    0.16180    0.27350   1.00
O2       0.77350    0.33820    0.22650   1.00
O2       0.83820    0.27350    0.22650   1.00
O2       0.77350    0.27350    0.16180   1.00
O2       0.66180    0.22650    0.22650   1.00
O2       0.72650    0.16180    0.22650   1.00
O2       0.72650    0.22650    0.16180   1.00
C1       0.75000    0.25000    0.35520   1.00
C1       0.75000    0.35520    0.25000   1.00
C1       0.64480    0.25000    0.25000   1.00
C1       0.85520    0.25000    0.25000   1.00
C1       0.75000    0.14480    0.25000   1.00
C1       0.75000    0.25000    0.14480   1.00
O1       0.25000    0.25000    0.25000   1.00
Zn1      0.28280    0.21720    0.21720   1.00
Zn1      0.21720    0.28280    0.21720   1.00
Zn1      0.21720    0.21720    0.28280   1.00
Zn1      0.28280    0.28280    0.28280   1.00
O2       0.27350    0.22650    0.16180   1.00
O2       0.27350    0.16180    0.22650   1.00
O2       0.33820    0.22650    0.22650   1.00
O2       0.22650    0.27350    0.16180   1.00
O2       0.16180    0.27350    0.22650   1.00
O2       0.22650    0.33820    0.22650   1.00
O2       0.22650    0.16180    0.27350   1.00
O2       0.16180    0.22650    0.27350   1.00
O2       0.22650    0.22650    0.33820   1.00
O2       0.33820    0.27350    0.27350   1.00
O2       0.27350    0.33820    0.27350   1.00
O2       0.27350    0.27350    0.33820   1.00
C1       0.25000    0.25000    0.14480   1.00
C1       0.25000    0.14480    0.25000   1.00
C1       0.35520    0.25000    0.25000   1.00
C1       0.14480    0.25000    0.25000   1.00
C1       0.25000    0.35520    0.25000   1.00
C1       0.25000    0.25000    0.35520   1.00
O1       0.75000    0.75000    0.25000   1.00
Zn1      0.78280    0.71720    0.21720   1.00
Zn1      0.71720    0.78280    0.21720   1.00
Zn1      0.71720    0.71720    0.28280   1.00
Zn1      0.78280    0.78280    0.28280   1.00
O2       0.77350    0.72650    0.16180   1.00
O2       0.77350    0.66180    0.22650   1.00
O2       0.83820    0.72650    0.22650   1.00
O2       0.72650    0.77350    0.16180   1.00
O2       0.66180    0.77350    0.22650   1.00
O2       0.72650    0.83820    0.22650   1.00
O2       0.72650    0.66180    0.27350   1.00
O2       0.66180    0.72650    0.27350   1.00
O2       0.72650    0.72650    0.33820   1.00
O2       0.83820    0.77350    0.27350   1.00
O2       0.77350    0.83820    0.27350   1.00
O2       0.77350    0.77350    0.33820   1.00
C1       0.75000    0.75000    0.14480   1.00
C1       0.75000    0.64480    0.25000   1.00
C1       0.85520    0.75000    0.25000   1.00
C1       0.64480    0.75000    0.25000   1.00
C1       0.75000    0.85520    0.25000   1.00
C1       0.75000    0.75000    0.35520   1.00
O1       0.75000    0.25000    0.75000   1.00
Zn1      0.78280    0.21720    0.71720   1.00
Zn1      0.71720    0.28280    0.71720   1.00
Zn1      0.71720    0.21720    0.78280   1.00
Zn1      0.78280    0.28280    0.78280   1.00
O2       0.77350    0.22650    0.66180   1.00
O2       0.77350    0.16180    0.72650   1.00
O2       0.83820    0.22650    0.72650   1.00
O2       0.72650    0.27350    0.66180   1.00
O2       0.66180    0.27350    0.72650   1.00
O2       0.72650    0.33820    0.72650   1.00
O2       0.72650    0.16180    0.77350   1.00
O2       0.66180    0.22650    0.77350   1.00
O2       0.72650    0.22650    0.83820   1.00
O2       0.83820    0.27350    0.77350   1.00
O2       0.77350    0.33820    0.77350   1.00
O2       0.77350    0.27350    0.83820   1.00
C1       0.75000    0.25000    0.64480   1.00
C1       0.75000    0.14480    0.75000   1.00
C1       0.85520    0.25000    0.75000   1.00
C1       0.64480    0.25000    0.75000   1.00
C1       0.75000    0.35520    0.75000   1.00
C1       0.75000    0.25000    0.85520   1.00
O1       0.25000    0.75000    0.75000   1.00
Zn1      0.28280    0.71720    0.71720   1.00
Zn1      0.21720    0.78280    0.71720   1.00
Zn1      0.21720    0.71720    0.78280   1.00
Zn1      0.28280    0.78280    0.78280   1.00
O2       0.27350    0.72650    0.66180   1.00
O2       0.27350    0.66180    0.72650   1.00
O2       0.33820    0.72650    0.72650   1.00
O2       0.22650    0.77350    0.66180   1.00
O2       0.16180    0.77350    0.72650   1.00
O2       0.22650    0.83820    0.72650   1.00
O2       0.22650    0.66180    0.77350   1.00
O2       0.16180    0.72650    0.77350   1.00
O2       0.22650    0.72650    0.83820   1.00
O2       0.33820    0.77350    0.77350   1.00
O2       0.27350    0.83820    0.77350   1.00
O2       0.27350    0.77350    0.83820   1.00
C1       0.25000    0.75000    0.64480   1.00
C1       0.25000    0.64480    0.75000   1.00
C1       0.35520    0.75000    0.75000   1.00
C1       0.14480    0.75000    0.75000   1.00
C1       0.25000    0.85520    0.75000   1.00
C1       0.25000    0.75000    0.85520   1.00
O1       0.91500    0.91500    0.91500   1.00
Zn1      0.88220    0.94780    0.94780   1.00
Zn1      0.94780    0.88220    0.94780   1.00
Zn1      0.94780    0.94780    0.88220   1.00
Zn1      0.88220    0.88220    0.88220   1.00
O2       0.89150    0.93850    1.00320   1.00
O2       0.89150    1.00320    0.93850   1.00
O2       0.82680    0.93850    0.93850   1.00
O2       0.93850    0.89150    1.00320   1.00
O2       1.00320    0.89150    0.93850   1.00
O2       0.93850    0.82680    0.93850   1.00
O2       0.93850    1.00320    0.89150   1.00
O2       1.00320    0.93850    0.89150   1.00
O2       0.93850    0.93850    0.82680   1.00
O2       0.82680    0.89150    0.89150   1.00
O2       0.89150    0.82680    0.89150   1.00
O2       0.89150    0.89150    0.82680   1.00
C1       0.91500    0.91500    1.02020   1.00
C1       0.91500    1.02020    0.91500   1.00
C1       0.80980    0.91500    0.91500   1.00
C1       1.02020    0.91500    0.91500   1.00
C1       0.91500    0.80980    0.91500   1.00
C1       0.91500    0.91500    0.80980   1.00
O1       0.41500    0.41500    0.91500   1.00
Zn1      0.38220    0.44780    0.94780   1.00
Zn1      0.44780    0.38220    0.94780   1.00
Zn1      0.44780    0.44780    0.88220   1.00
Zn1      0.38220    0.38220    0.88220   1.00
O2       0.39150    0.43850    1.00320   1.00
O2       0.39150    0.50320    0.93850   1.00
O2       0.32680    0.43850    0.93850   1.00
O2       0.43850    0.39150    1.00320   1.00
O2       0.50320    0.39150    0.93850   1.00
O2       0.43850    0.32680    0.93850   1.00
O2       0.43850    0.50320    0.89150   1.00
O2       0.50320    0.43850    0.89150   1.00
O2       0.43850    0.43850    0.82680   1.00
O2       0.32680    0.39150    0.89150   1.00
O2       0.39150    0.32680    0.89150   1.00
O2       0.39150    0.39150    0.82680   1.00
C1       0.41500    0.41500    1.02020   1.00
C1       0.41500    0.52020    0.91500   1.00
C1       0.30980    0.41500    0.91500   1.00
C1       0.52020    0.41500    0.91500   1.00
C1       0.41500    0.30980    0.91500   1.00
C1       0.41500    0.41500    0.80980   1.00
O1       0.41500    0.91500    0.41500   1.00
Zn1      0.38220    0.94780    0.44780   1.00
Zn1      0.44780    0.88220    0.44780   1.00
Zn1      0.44780    0.94780    0.38220   1.00
Zn1      0.38220    0.88220    0.38220   1.00
O2       0.39150    0.93850    0.50320   1.00
O2       0.39150    1.00320    0.43850   1.00
O2       0.32680    0.93850    0.43850   1.00
O2       0.43850    0.89150    0.50320   1.00
O2       0.50320    0.89150    0.43850   1.00
O2       0.43850    0.82680    0.43850   1.00
O2       0.43850    1.00320    0.39150   1.00
O2       0.50320    0.93850    0.39150   1.00
O2       0.43850    0.93850    0.32680   1.00
O2       0.32680    0.89150    0.39150   1.00
O2       0.39150    0.82680    0.39150   1.00
O2       0.39150    0.89150    0.32680   1.00
C1       0.41500    0.91500    0.52020   1.00
C1       0.41500    1.02020    0.41500   1.00
C1       0.30980    0.91500    0.41500   1.00
C1       0.52020    0.91500    0.41500   1.00
C1       0.41500    0.80980    0.41500   1.00
C1       0.41500    0.91500    0.30980   1.00
O1       0.91500    0.41500    0.41500   1.00
Zn1      0.88220    0.44780    0.44780   1.00
Zn1      0.94780    0.38220    0.44780   1.00
Zn1      0.94780    0.44780    0.38220   1.00
Zn1      0.88220    0.38220    0.38220   1.00
O2       0.89150    0.43850    0.50320   1.00
O2       0.89150    0.50320    0.43850   1.00
O2       0.82680    0.43850    0.43850   1.00
O2       0.93850    0.39150    0.50320   1.00
O2       1.00320    0.39150    0.43850   1.00
O2       0.93850    0.32680    0.43850   1.00
O2       0.93850    0.50320    0.39150   1.00
O2       1.00320    0.43850    0.39150   1.00
O2       0.93850    0.43850    0.32680   1.00
O2       0.82680    0.39150    0.39150   1.00
O2       0.89150    0.32680    0.39150   1.00
O2       0.89150    0.39150    0.32680   1.00
C1       0.91500    0.41500    0.52020   1.00
C1       0.91500    0.52020    0.41500   1.00
C1       0.80980    0.41500    0.41500   1.00
C1       1.02020    0.41500    0.41500   1.00
C1       0.91500    0.30980    0.41500   1.00
C1       0.91500    0.41500    0.30980   1.00
O1       0.41500    0.41500    0.41500   1.00
Zn1      0.44780    0.38220    0.38220   1.00
Zn1      0.38220    0.44780    0.38220   1.00
Zn1      0.38220    0.38220    0.44780   1.00
Zn1      0.44780    0.44780    0.44780   1.00
O2       0.43850    0.39150    0.32680   1.00
O2       0.43850    0.32680    0.39150   1.00
O2       0.50320    0.39150    0.39150   1.00
O2       0.39150    0.43850    0.32680   1.00
O2       0.32680    0.43850    0.39150   1.00
O2       0.39150    0.50320    0.39150   1.00
O2       0.39150    0.32680    0.43850   1.00
O2       0.32680    0.39150    0.43850   1.00
O2       0.39150    0.39150    0.50320   1.00
O2       0.50320    0.43850    0.43850   1.00
O2       0.43850    0.50320    0.43850   1.00
O2       0.43850    0.43850    0.50320   1.00
C1       0.41500    0.41500    0.30980   1.00
C1       0.41500    0.30980    0.41500   1.00
C1       0.52020    0.41500    0.41500   1.00
C1       0.30980    0.41500    0.41500   1.00
C1       0.41500    0.52020    0.41500   1.00
C1       0.41500    0.41500    0.52020   1.00
O1       0.91500    0.91500    0.41500   1.00
Zn1      0.94780    0.88220    0.38220   1.00
Zn1      0.88220    0.94780    0.38220   1.00
Zn1      0.88220    0.88220    0.44780   1.00
Zn1      0.94780    0.94780    0.44780   1.00
O2       0.93850    0.89150    0.32680   1.00
O2       0.93850    0.82680    0.39150   1.00
O2       1.00320    0.89150    0.39150   1.00
O2       0.89150    0.93850    0.32680   1.00
O2       0.82680    0.93850    0.39150   1.00
O2       0.89150    1.00320    0.39150   1.00
O2       0.89150    0.82680    0.43850   1.00
O2       0.82680    0.89150    0.43850   1.00
O2       0.89150    0.89150    0.50320   1.00
O2       1.00320    0.93850    0.43850   1.00
O2       0.93850    1.00320    0.43850   1.00
O2       0.93850    0.93850    0.50320   1.00
C1       0.91500    0.91500    0.30980   1.00
C1       0.91500    0.80980    0.41500   1.00
C1       1.02020    0.91500    0.41500   1.00
C1       0.80980    0.91500    0.41500   1.00
C1       0.91500    1.02020    0.41500   1.00
C1       0.91500    0.91500    0.52020   1.00
O1       0.91500    0.41500    0.91500   1.00
Zn1      0.94780    0.38220    0.88220   1.00
Zn1      0.88220    0.44780    0.88220   1.00
Zn1      0.88220    0.38220    0.94780   1.00
Zn1      0.94780    0.44780    0.94780   1.00
O2       0.93850    0.39150    0.82680   1.00
O2       0.93850    0.32680    0.89150   1.00
O2       1.00320    0.39150    0.89150   1.00
O2       0.89150    0.43850    0.82680   1.00
O2       0.82680    0.43850    0.89150   1.00
O2       0.89150    0.50320    0.89150   1.00
O2       0.89150    0.32680    0.93850   1.00
O2       0.82680    0.39150    0.93850   1.00
O2       0.89150    0.39150    1.00320   1.00
O2       1.00320    0.43850    0.93850   1.00
O2       0.93850    0.50320    0.93850   1.00
O2       0.93850    0.43850    1.00320   1.00
C1       0.91500    0.41500    0.80980   1.00
C1       0.91500    0.30980    0.91500   1.00
C1       1.02020    0.41500    0.91500   1.00
C1       0.80980    0.41500    0.91500   1.00
C1       0.91500    0.52020    0.91500   1.00
C1       0.91500    0.41500    1.02020   1.00
O1       0.41500    0.91500    0.91500   1.00
Zn1      0.44780    0.88220    0.88220   1.00
Zn1      0.38220    0.94780    0.88220   1.00
Zn1      0.38220    0.88220    0.94780   1.00
Zn1      0.44780    0.94780    0.94780   1.00
O2       0.43850    0.89150    0.82680   1.00
O2       0.43850    0.82680    0.89150   1.00
O2       0.50320    0.89150    0.89150   1.00
O2       0.39150    0.93850    0.82680   1.00
O2       0.32680    0.93850    0.89150   1.00
O2       0.39150    1.00320    0.89150   1.00
O2       0.39150    0.82680    0.93850   1.00
O2       0.32680    0.89150    0.93850   1.00
O2       0.39150    0.89150    1.00320   1.00
O2       0.50320    0.93850    0.93850   1.00
O2       0.43850    1.00320    0.93850   1.00
O2       0.43850    0.93850    1.00320   1.00
C1       0.41500    0.91500    0.80980   1.00
C1       0.41500    0.80980    0.91500   1.00
C1       0.52020    0.91500    0.91500   1.00
C1       0.30980    0.91500    0.91500   1.00
C1       0.41500    1.02020    0.91500   1.00
C1       0.41500    0.91500    1.02020   1.00
C4       0.74997    0.74980    0.97915   1.00
C4       0.75003    0.75020    1.02085   1.00
C3a      0.76837    0.71935    0.95746   1.00
C3       0.72370    0.72694    1.04232   1.00
C3       0.73148    0.77967    0.95768   1.00
C3a      0.77644    0.77403    1.04254   1.00
C2       0.74992    0.75001    0.89488   1.00
C2       0.74992    0.75002    1.10512   1.00
C3       0.76811    0.71998    0.91595   1.00
C3       0.72376    0.72680    1.08363   1.00
C3       0.73158    0.77979    0.91637   1.00
C3       0.77601    0.77350    1.08405   1.00
C5       0.78909    0.68604    0.97772   1.00
H1       0.70321    0.70846    1.02691   1.00
H1       0.78231    0.69688    0.89979   1.00
H1       0.70324    0.70838    1.09901   1.00
H1       0.71726    0.80336    0.90099   1.00
H1       0.79628    0.79152    1.10021   1.00
C5       0.80591    0.79994    1.02228   1.00
H1       0.71720    0.80328    0.97309   1.00
H2       0.83020    0.80692    1.04256   1.00
H2       0.81932    0.78424    0.99731   1.00
H2       0.81033    0.67233    0.95744   1.00
H2       0.80647    0.69719    1.00269   1.00
N1       0.78768    0.83605    1.00857   1.00
C6       0.77275    0.86444    1.03073   1.00
C6       0.78380    0.84744    0.97154   1.00
C6       0.75867    0.89410    1.00759   1.00
C6       0.76570    0.88330    0.96995   1.00
H3       0.77175    0.86362    1.06197   1.00
H3       0.79324    0.83059    0.94700   1.00
H3       0.74485    0.92066    1.01713   1.00
H3       0.75842    0.89972    0.94425   1.00
N1       0.76121    0.65673    0.99143   1.00
C6       0.75420    0.64695    1.02846   1.00
C6       0.73871    0.63387    0.96927   1.00
C6       0.72652    0.61785    1.03005   1.00
C6       0.71666    0.60954    0.99241   1.00
H3       0.76811    0.66035    1.05300   1.00
H3       0.73799    0.63494    0.93803   1.00
H3       0.71480    0.60423    1.05575   1.00
H3       0.69576    0.58811    0.98287   1.00
C4       0.74980    0.97915    0.74997   1.00
C4       0.75020    1.02085    0.75003   1.00
C3a      0.71935    0.95746    0.76837   1.00
C3       0.72694    1.04232    0.72370   1.00
C3       0.77967    0.95768    0.73148   1.00
C3a      0.77403    1.04254    0.77644   1.00
C2       0.75001    0.89488    0.74992   1.00
C2       0.75002    1.10512    0.74992   1.00
C3       0.71998    0.91595    0.76811   1.00
C3       0.72680    1.08363    0.72376   1.00
C3       0.77979    0.91637    0.73158   1.00
C3       0.77350    1.08405    0.77601   1.00
C5       0.68604    0.97772    0.78909   1.00
H1       0.70846    1.02691    0.70321   1.00
H1       0.69688    0.89979    0.78231   1.00
H1       0.70838    1.09901    0.70324   1.00
H1       0.80336    0.90099    0.71726   1.00
H1       0.79152    1.10021    0.79628   1.00
C5       0.79994    1.02228    0.80591   1.00
H1       0.80328    0.97309    0.71720   1.00
H2       0.80692    1.04256    0.83020   1.00
H2       0.78424    0.99731    0.81932   1.00
H2       0.67233    0.95744    0.81033   1.00
H2       0.69719    1.00269    0.80647   1.00
N1       0.83605    1.00857    0.78768   1.00
C6       0.86444    1.03073    0.77275   1.00
C6       0.84744    0.97154    0.78380   1.00
C6       0.89410    1.00759    0.75867   1.00
C6       0.88330    0.96995    0.76570   1.00
H3       0.86362    1.06197    0.77175   1.00
H3       0.83059    0.94700    0.79324   1.00
H3       0.92066    1.01713    0.74485   1.00
H3       0.89972    0.94425    0.75842   1.00
N1       0.65673    0.99143    0.76121   1.00
C6       0.64695    1.02846    0.75420   1.00
C6       0.63387    0.96927    0.73871   1.00
C6       0.61785    1.03005    0.72652   1.00
C6       0.60954    0.99241    0.71666   1.00
H3       0.66035    1.05300    0.76811   1.00
H3       0.63494    0.93803    0.73799   1.00
H3       0.60423    1.05575    0.71480   1.00
H3       0.58811    0.98287    0.69576   1.00
C4       0.52085    0.74997    0.75020   1.00
C4       0.47915    0.75003    0.74980   1.00
C3a      0.54254    0.76837    0.78065   1.00
C3       0.45768    0.72370    0.77306   1.00
C3       0.54232    0.73148    0.72033   1.00
C3a      0.45746    0.77644    0.72597   1.00
C2       0.60512    0.74992    0.74999   1.00
C2       0.39488    0.74992    0.74998   1.00
C3       0.58405    0.76811    0.78002   1.00
C3       0.41637    0.72376    0.77320   1.00
C3       0.58363    0.73158    0.72021   1.00
C3       0.41595    0.77601    0.72650   1.00
C5       0.52228    0.78909    0.81396   1.00
H1       0.47309    0.70321    0.79154   1.00
H1       0.60021    0.78231    0.80312   1.00
H1       0.40099    0.70324    0.79162   1.00
H1       0.59901    0.71726    0.69664   1.00
H1       0.39979    0.79628    0.70848   1.00
C5       0.47772    0.80591    0.70006   1.00
H1       0.52691    0.71720    0.69672   1.00
H2       0.45744    0.83020    0.69308   1.00
H2       0.50269    0.81932    0.71576   1.00
H2       0.54256    0.81033    0.82767   1.00
H2       0.49731    0.80647    0.80281   1.00
N1       0.49143    0.78768    0.66395   1.00
C6       0.46927    0.77275    0.63556   1.00
C6       0.52846    0.78380    0.65256   1.00
C6       0.49241    0.75867    0.60590   1.00
C6       0.53005    0.76570    0.61670   1.00
H3       0.43803    0.77175    0.63638   1.00
H3       0.55300    0.79324    0.66941   1.00
H3       0.48287    0.74485    0.57934   1.00
H3       0.55575    0.75842    0.60028   1.00
N1       0.50857    0.76121    0.84327   1.00
C6       0.47154    0.75420    0.85305   1.00
C6       0.53073    0.73871    0.86613   1.00
C6       0.46995    0.72652    0.88215   1.00
C6       0.50759    0.71666    0.89046   1.00
H3       0.44700    0.76811    0.83965   1.00
H3       0.56197    0.73799    0.86506   1.00
H3       0.44425    0.71480    0.89577   1.00
H3       0.51713    0.69576    0.91189   1.00
C4       0.97915    0.74997    0.74980   1.00
C4       1.02085    0.75003    0.75020   1.00
C3a      0.95746    0.76837    0.71935   1.00
C3       1.04232    0.72370    0.72694   1.00
C3       0.95768    0.73148    0.77967   1.00
C3a      1.04254    0.77644    0.77403   1.00
C2       0.89488    0.74992    0.75001   1.00
C2       1.10512    0.74992    0.75002   1.00
C3       0.91595    0.76811    0.71998   1.00
C3       1.08363    0.72376    0.72680   1.00
C3       0.91637    0.73158    0.77979   1.00
C3       1.08405    0.77601    0.77350   1.00
C5       0.97772    0.78909    0.68604   1.00
H1       1.02691    0.70321    0.70846   1.00
H1       0.89979    0.78231    0.69688   1.00
H1       1.09901    0.70324    0.70838   1.00
H1       0.90099    0.71726    0.80336   1.00
H1       1.10021    0.79628    0.79152   1.00
C5       1.02228    0.80591    0.79994   1.00
H1       0.97309    0.71720    0.80328   1.00
H2       1.04256    0.83020    0.80692   1.00
H2       0.99731    0.81932    0.78424   1.00
H2       0.95744    0.81033    0.67233   1.00
H2       1.00269    0.80647    0.69719   1.00
N1       1.00857    0.78768    0.83605   1.00
C6       1.03073    0.77275    0.86444   1.00
C6       0.97154    0.78380    0.84744   1.00
C6       1.00759    0.75867    0.89410   1.00
C6       0.96995    0.76570    0.88330   1.00
H3       1.06197    0.77175    0.86362   1.00
H3       0.94700    0.79324    0.83059   1.00
H3       1.01713    0.74485    0.92066   1.00
H3       0.94425    0.75842    0.89972   1.00
N1       0.99143    0.76121    0.65673   1.00
C6       1.02846    0.75420    0.64695   1.00
C6       0.96927    0.73871    0.63387   1.00
C6       1.03005    0.72652    0.61785   1.00
C6       0.99241    0.71666    0.60954   1.00
H3       1.05300    0.76811    0.66035   1.00
H3       0.93803    0.73799    0.63494   1.00
H3       1.05575    0.71480    0.60423   1.00
H3       0.98287    0.69576    0.58811   1.00
C4       0.75020    0.52085    0.74997   1.00
C4       0.74980    0.47915    0.75003   1.00
C3a      0.78065    0.54254    0.76837   1.00
C3       0.77306    0.45768    0.72370   1.00
C3       0.72033    0.54232    0.73148   1.00
C3a      0.72597    0.45746    0.77644   1.00
C2       0.74999    0.60512    0.74992   1.00
C2       0.74998    0.39488    0.74992   1.00
C3       0.78002    0.58405    0.76811   1.00
C3       0.77320    0.41637    0.72376   1.00
C3       0.72021    0.58363    0.73158   1.00
C3       0.72650    0.41595    0.77601   1.00
C5       0.81396    0.52228    0.78909   1.00
H1       0.79154    0.47309    0.70321   1.00
H1       0.80312    0.60021    0.78231   1.00
H1       0.79162    0.40099    0.70324   1.00
H1       0.69664    0.59901    0.71726   1.00
H1       0.70848    0.39979    0.79628   1.00
C5       0.70006    0.47772    0.80591   1.00
H1       0.69672    0.52691    0.71720   1.00
H2       0.69308    0.45744    0.83020   1.00
H2       0.71576    0.50269    0.81932   1.00
H2       0.82767    0.54256    0.81033   1.00
H2       0.80281    0.49731    0.80647   1.00
N1       0.66395    0.49143    0.78768   1.00
C6       0.63556    0.46927    0.77275   1.00
C6       0.65256    0.52846    0.78380   1.00
C6       0.60590    0.49241    0.75867   1.00
C6       0.61670    0.53005    0.76570   1.00
H3       0.63638    0.43803    0.77175   1.00
H3       0.66941    0.55300    0.79324   1.00
H3       0.57934    0.48287    0.74485   1.00
H3       0.60028    0.55575    0.75842   1.00
N1       0.84327    0.50857    0.76121   1.00
C6       0.85305    0.47154    0.75420   1.00
C6       0.86613    0.53073    0.73871   1.00
C6       0.88215    0.46995    0.72652   1.00
C6       0.89046    0.50759    0.71666   1.00
H3       0.83965    0.44700    0.76811   1.00
H3       0.86506    0.56197    0.73799   1.00
H3       0.89577    0.44425    0.71480   1.00
H3       0.91189    0.51713    0.69576   1.00
C4       0.74997    0.75020    0.52085   1.00
C4       0.75003    0.74980    0.47915   1.00
C3a      0.76837    0.78065    0.54254   1.00
C3       0.72370    0.77306    0.45768   1.00
C3       0.73148    0.72033    0.54232   1.00
C3a      0.77644    0.72597    0.45746   1.00
C2       0.74992    0.74999    0.60512   1.00
C2       0.74992    0.74998    0.39488   1.00
C3       0.76811    0.78002    0.58405   1.00
C3       0.72376    0.77320    0.41637   1.00
C3       0.73158    0.72021    0.58363   1.00
C3       0.77601    0.72650    0.41595   1.00
C5       0.78909    0.81396    0.52228   1.00
H1       0.70321    0.79154    0.47309   1.00
H1       0.78231    0.80312    0.60021   1.00
H1       0.70324    0.79162    0.40099   1.00
H1       0.71726    0.69664    0.59901   1.00
H1       0.79628    0.70848    0.39979   1.00
C5       0.80591    0.70006    0.47772   1.00
H1       0.71720    0.69672    0.52691   1.00
H2       0.83020    0.69308    0.45744   1.00
H2       0.81932    0.71576    0.50269   1.00
H2       0.81033    0.82767    0.54256   1.00
H2       0.80647    0.80281    0.49731   1.00
N1       0.78768    0.66395    0.49143   1.00
C6       0.77275    0.63556    0.46927   1.00
C6       0.78380    0.65256    0.52846   1.00
C6       0.75867    0.60590    0.49241   1.00
C6       0.76570    0.61670    0.53005   1.00
H3       0.77175    0.63638    0.43803   1.00
H3       0.79324    0.66941    0.55300   1.00
H3       0.74485    0.57934    0.48287   1.00
H3       0.75842    0.60028    0.55575   1.00
N1       0.76121    0.84327    0.50857   1.00
C6       0.75420    0.85305    0.47154   1.00
C6       0.73871    0.86613    0.53073   1.00
C6       0.72652    0.88215    0.46995   1.00
C6       0.71666    0.89046    0.50759   1.00
H3       0.76811    0.83965    0.44700   1.00
H3       0.73799    0.86506    0.56197   1.00
H3       0.71480    0.89577    0.44425   1.00
H3       0.69576    0.91189    0.51713   1.00
C4       0.24997    0.24980    0.97915   1.00
C4       0.25003    0.25020    1.02085   1.00
C3a      0.26837    0.21935    0.95746   1.00
C3       0.22370    0.22694    1.04232   1.00
C3       0.23148    0.27967    0.95768   1.00
C3a      0.27644    0.27403    1.04254   1.00
C2       0.24992    0.25001    0.89488   1.00
C2       0.24992    0.25002    1.10512   1.00
C3       0.26811    0.21998    0.91595   1.00
C3       0.22376    0.22680    1.08363   1.00
C3       0.23158    0.27979    0.91637   1.00
C3       0.27601    0.27350    1.08405   1.00
C5       0.28909    0.18604    0.97772   1.00
H1       0.20321    0.20846    1.02691   1.00
H1       0.28231    0.19688    0.89979   1.00
H1       0.20324    0.20838    1.09901   1.00
H1       0.21726    0.30336    0.90099   1.00
H1       0.29628    0.29152    1.10021   1.00
C5       0.30591    0.29994    1.02228   1.00
H1       0.21720    0.30328    0.97309   1.00
H2       0.33020    0.30692    1.04256   1.00
H2       0.31932    0.28424    0.99731   1.00
H2       0.31033    0.17233    0.95744   1.00
H2       0.30647    0.19719    1.00269   1.00
N1       0.28768    0.33605    1.00857   1.00
C6       0.27275    0.36444    1.03073   1.00
C6       0.28380    0.34744    0.97154   1.00
C6       0.25867    0.39410    1.00759   1.00
C6       0.26570    0.38330    0.96995   1.00
H3       0.27175    0.36362    1.06197   1.00
H3       0.29324    0.33059    0.94700   1.00
H3       0.24485    0.42066    1.01713   1.00
H3       0.25842    0.39972    0.94425   1.00
N1       0.26121    0.15673    0.99143   1.00
C6       0.25420    0.14695    1.02846   1.00
C6       0.23871    0.13387    0.96927   1.00
C6       0.22652    0.11785    1.03005   1.00
C6       0.21666    0.10954    0.99241   1.00
H3       0.26811    0.16035    1.05300   1.00
H3       0.23799    0.13494    0.93803   1.00
H3       0.21480    0.10423    1.05575   1.00
H3       0.19576    0.08811    0.98287   1.00
C4       0.24980    0.47915    0.74997   1.00
C4       0.25020    0.52085    0.75003   1.00
C3a      0.21935    0.45746    0.76837   1.00
C3       0.22694    0.54232    0.72370   1.00
C3       0.27967    0.45768    0.73148   1.00
C3a      0.27403    0.54254    0.77644   1.00
C2       0.25001    0.39488    0.74992   1.00
C2       0.25002    0.60512    0.74992   1.00
C3       0.21998    0.41595    0.76811   1.00
C3       0.22680    0.58363    0.72376   1.00
C3       0.27979    0.41637    0.73158   1.00
C3       0.27350    0.58405    0.77601   1.00
C5       0.18604    0.47772    0.78909   1.00
H1       0.20846    0.52691    0.70321   1.00
H1       0.19688    0.39979    0.78231   1.00
H1       0.20838    0.59901    0.70324   1.00
H1       0.30336    0.40099    0.71726   1.00
H1       0.29152    0.60021    0.79628   1.00
C5       0.29994    0.52228    0.80591   1.00
H1       0.30328    0.47309    0.71720   1.00
H2       0.30692    0.54256    0.83020   1.00
H2       0.28424    0.49731    0.81932   1.00
H2       0.17233    0.45744    0.81033   1.00
H2       0.19719    0.50269    0.80647   1.00
N1       0.33605    0.50857    0.78768   1.00
C6       0.36444    0.53073    0.77275   1.00
C6       0.34744    0.47154    0.78380   1.00
C6       0.39410    0.50759    0.75867   1.00
C6       0.38330    0.46995    0.76570   1.00
H3       0.36362    0.56197    0.77175   1.00
H3       0.33059    0.44700    0.79324   1.00
H3       0.42066    0.51713    0.74485   1.00
H3       0.39972    0.44425    0.75842   1.00
N1       0.15673    0.49143    0.76121   1.00
C6       0.14695    0.52846    0.75420   1.00
C6       0.13387    0.46927    0.73871   1.00
C6       0.11785    0.53005    0.72652   1.00
C6       0.10954    0.49241    0.71666   1.00
H3       0.16035    0.55300    0.76811   1.00
H3       0.13494    0.43803    0.73799   1.00
H3       0.10423    0.55575    0.71480   1.00
H3       0.08811    0.48287    0.69576   1.00
C4       0.02085    0.24997    0.75020   1.00
C4       -0.02085   0.25003    0.74980   1.00
C3a      0.04254    0.26837    0.78065   1.00
C3       -0.04232   0.22370    0.77306   1.00
C3       0.04232    0.23148    0.72033   1.00
C3a      -0.04254   0.27644    0.72597   1.00
C2       0.10512    0.24992    0.74999   1.00
C2       -0.10512   0.24992    0.74998   1.00
C3       0.08405    0.26811    0.78002   1.00
C3       -0.08363   0.22376    0.77320   1.00
C3       0.08363    0.23158    0.72021   1.00
C3       -0.08405   0.27601    0.72650   1.00
C5       0.02228    0.28909    0.81396   1.00
H1       -0.02691   0.20321    0.79154   1.00
H1       0.10021    0.28231    0.80312   1.00
H1       -0.09901   0.20324    0.79162   1.00
H1       0.09901    0.21726    0.69664   1.00
H1       -0.10021   0.29628    0.70848   1.00
C5       -0.02228   0.30591    0.70006   1.00
H1       0.02691    0.21720    0.69672   1.00
H2       -0.04256   0.33020    0.69308   1.00
H2       0.00269    0.31932    0.71576   1.00
H2       0.04256    0.31033    0.82767   1.00
H2       -0.00269   0.30647    0.80281   1.00
N1       -0.00857   0.28768    0.66395   1.00
C6       -0.03073   0.27275    0.63556   1.00
C6       0.02846    0.28380    0.65256   1.00
C6       -0.00759   0.25867    0.60590   1.00
C6       0.03005    0.26570    0.61670   1.00
H3       -0.06197   0.27175    0.63638   1.00
H3       0.05300    0.29324    0.66941   1.00
H3       -0.01713   0.24485    0.57934   1.00
H3       0.05575    0.25842    0.60028   1.00
N1       0.00857    0.26121    0.84327   1.00
C6       -0.02846   0.25420    0.85305   1.00
C6       0.03073    0.23871    0.86613   1.00
C6       -0.03005   0.22652    0.88215   1.00
C6       0.00759    0.21666    0.89046   1.00
H3       -0.05300   0.26811    0.83965   1.00
H3       0.06197    0.23799    0.86506   1.00
H3       -0.05575   0.21480    0.89577   1.00
H3       0.01713    0.19576    0.91189   1.00
C4       0.47915    0.24997    0.74980   1.00
C4       0.52085    0.25003    0.75020   1.00
C3a      0.45746    0.26837    0.71935   1.00
C3       0.54232    0.22370    0.72694   1.00
C3       0.45768    0.23148    0.77967   1.00
C3a      0.54254    0.27644    0.77403   1.00
C2       0.39488    0.24992    0.75001   1.00
C2       0.60512    0.24992    0.75002   1.00
C3       0.41595    0.26811    0.71998   1.00
C3       0.58363    0.22376    0.72680   1.00
C3       0.41637    0.23158    0.77979   1.00
C3       0.58405    0.27601    0.77350   1.00
C5       0.47772    0.28909    0.68604   1.00
H1       0.52691    0.20321    0.70846   1.00
H1       0.39979    0.28231    0.69688   1.00
H1       0.59901    0.20324    0.70838   1.00
H1       0.40099    0.21726    0.80336   1.00
H1       0.60021    0.29628    0.79152   1.00
C5       0.52228    0.30591    0.79994   1.00
H1       0.47309    0.21720    0.80328   1.00
H2       0.54256    0.33020    0.80692   1.00
H2       0.49731    0.31932    0.78424   1.00
H2       0.45744    0.31033    0.67233   1.00
H2       0.50269    0.30647    0.69719   1.00
N1       0.50857    0.28768    0.83605   1.00
C6       0.53073    0.27275    0.86444   1.00
C6       0.47154    0.28380    0.84744   1.00
C6       0.50759    0.25867    0.89410   1.00
C6       0.46995    0.26570    0.88330   1.00
H3       0.56197    0.27175    0.86362   1.00
H3       0.44700    0.29324    0.83059   1.00
H3       0.51713    0.24485    0.92066   1.00
H3       0.44425    0.25842    0.89972   1.00
N1       0.49143    0.26121    0.65673   1.00
C6       0.52846    0.25420    0.64695   1.00
C6       0.46927    0.23871    0.63387   1.00
C6       0.53005    0.22652    0.61785   1.00
C6       0.49241    0.21666    0.60954   1.00
H3       0.55300    0.26811    0.66035   1.00
H3       0.43803    0.23799    0.63494   1.00
H3       0.55575    0.21480    0.60423   1.00
H3       0.48287    0.19576    0.58811   1.00
C4       0.25020    0.02085    0.74997   1.00
C4       0.24980    -0.02085   0.75003   1.00
C3a      0.28065    0.04254    0.76837   1.00
C3       0.27306    -0.04232   0.72370   1.00
C3       0.22033    0.04232    0.73148   1.00
C3a      0.22597    -0.04254   0.77644   1.00
C2       0.24999    0.10512    0.74992   1.00
C2       0.24998    -0.10512   0.74992   1.00
C3       0.28002    0.08405    0.76811   1.00
C3       0.27320    -0.08363   0.72376   1.00
C3       0.22021    0.08363    0.73158   1.00
C3       0.22650    -0.08405   0.77601   1.00
C5       0.31396    0.02228    0.78909   1.00
H1       0.29154    -0.02691   0.70321   1.00
H1       0.30312    0.10021    0.78231   1.00
H1       0.29162    -0.09901   0.70324   1.00
H1       0.19664    0.09901    0.71726   1.00
H1       0.20848    -0.10021   0.79628   1.00
C5       0.20006    -0.02228   0.80591   1.00
H1       0.19672    0.02691    0.71720   1.00
H2       0.19308    -0.04256   0.83020   1.00
H2       0.21576    0.00269    0.81932   1.00
H2       0.32767    0.04256    0.81033   1.00
H2       0.30281    -0.00269   0.80647   1.00
N1       0.16395    -0.00857   0.78768   1.00
C6       0.13556    -0.03073   0.77275   1.00
C6       0.15256    0.02846    0.78380   1.00
C6       0.10590    -0.00759   0.75867   1.00
C6       0.11670    0.03005    0.76570   1.00
H3       0.13638    -0.06197   0.77175   1.00
H3       0.16941    0.05300    0.79324   1.00
H3       0.07934    -0.01713   0.74485   1.00
H3       0.10028    0.05575    0.75842   1.00
N1       0.34327    0.00857    0.76121   1.00
C6       0.35305    -0.02846   0.75420   1.00
C6       0.36613    0.03073    0.73871   1.00
C6       0.38215    -0.03005   0.72652   1.00
C6       0.39046    0.00759    0.71666   1.00
H3       0.33965    -0.05300   0.76811   1.00
H3       0.36506    0.06197    0.73799   1.00
H3       0.39577    -0.05575   0.71480   1.00
H3       0.41189    0.01713    0.69576   1.00
C4       0.24997    0.25020    0.52085   1.00
C4       0.25003    0.24980    0.47915   1.00
C3a      0.26837    0.28065    0.54254   1.00
C3       0.22370    0.27306    0.45768   1.00
C3       0.23148    0.22033    0.54232   1.00
C3a      0.27644    0.22597    0.45746   1.00
C2       0.24992    0.24999    0.60512   1.00
C2       0.24992    0.24998    0.39488   1.00
C3       0.26811    0.28002    0.58405   1.00
C3       0.22376    0.27320    0.41637   1.00
C3       0.23158    0.22021    0.58363   1.00
C3       0.27601    0.22650    0.41595   1.00
C5       0.28909    0.31396    0.52228   1.00
H1       0.20321    0.29154    0.47309   1.00
H1       0.28231    0.30312    0.60021   1.00
H1       0.20324    0.29162    0.40099   1.00
H1       0.21726    0.19664    0.59901   1.00
H1       0.29628    0.20848    0.39979   1.00
C5       0.30591    0.20006    0.47772   1.00
H1       0.21720    0.19672    0.52691   1.00
H2       0.33020    0.19308    0.45744   1.00
H2       0.31932    0.21576    0.50269   1.00
H2       0.31033    0.32767    0.54256   1.00
H2       0.30647    0.30281    0.49731   1.00
N1       0.28768    0.16395    0.49143   1.00
C6       0.27275    0.13556    0.46927   1.00
C6       0.28380    0.15256    0.52846   1.00
C6       0.25867    0.10590    0.49241   1.00
C6       0.26570    0.11670    0.53005   1.00
H3       0.27175    0.13638    0.43803   1.00
H3       0.29324    0.16941    0.55300   1.00
H3       0.24485    0.07934    0.48287   1.00
H3       0.25842    0.10028    0.55575   1.00
N1       0.26121    0.34327    0.50857   1.00
C6       0.25420    0.35305    0.47154   1.00
C6       0.23871    0.36613    0.53073   1.00
C6       0.22652    0.38215    0.46995   1.00
C6       0.21666    0.39046    0.50759   1.00
H3       0.26811    0.33965    0.44700   1.00
H3       0.23799    0.36506    0.56197   1.00
H3       0.21480    0.39577    0.44425   1.00
H3       0.19576    0.41189    0.51713   1.00
C4       0.24997    0.74980    0.47915   1.00
C4       0.25003    0.75020    0.52085   1.00
C3a      0.26837    0.71935    0.45746   1.00
C3       0.22370    0.72694    0.54232   1.00
C3       0.23148    0.77967    0.45768   1.00
C3a      0.27644    0.77403    0.54254   1.00
C2       0.24992    0.75001    0.39488   1.00
C2       0.24992    0.75002    0.60512   1.00
C3       0.26811    0.71998    0.41595   1.00
C3       0.22376    0.72680    0.58363   1.00
C3       0.23158    0.77979    0.41637   1.00
C3       0.27601    0.77350    0.58405   1.00
C5       0.28909    0.68604    0.47772   1.00
H1       0.20321    0.70846    0.52691   1.00
H1       0.28231    0.69688    0.39979   1.00
H1       0.20324    0.70838    0.59901   1.00
H1       0.21726    0.80336    0.40099   1.00
H1       0.29628    0.79152    0.60021   1.00
C5       0.30591    0.79994    0.52228   1.00
H1       0.21720    0.80328    0.47309   1.00
H2       0.33020    0.80692    0.54256   1.00
H2       0.31932    0.78424    0.49731   1.00
H2       0.31033    0.67233    0.45744   1.00
H2       0.30647    0.69719    0.50269   1.00
N1       0.28768    0.83605    0.50857   1.00
C6       0.27275    0.86444    0.53073   1.00
C6       0.28380    0.84744    0.47154   1.00
C6       0.25867    0.89410    0.50759   1.00
C6       0.26570    0.88330    0.46995   1.00
H3       0.27175    0.86362    0.56197   1.00
H3       0.29324    0.83059    0.44700   1.00
H3       0.24485    0.92066    0.51713   1.00
H3       0.25842    0.89972    0.44425   1.00
N1       0.26121    0.65673    0.49143   1.00
C6       0.25420    0.64695    0.52846   1.00
C6       0.23871    0.63387    0.46927   1.00
C6       0.22652    0.61785    0.53005   1.00
C6       0.21666    0.60954    0.49241   1.00
H3       0.26811    0.66035    0.55300   1.00
H3       0.23799    0.63494    0.43803   1.00
H3       0.21480    0.60423    0.55575   1.00
H3       0.19576    0.58811    0.48287   1.00
C4       0.24980    0.97915    0.24997   1.00
C4       0.25020    1.02085    0.25003   1.00
C3a      0.21935    0.95746    0.26837   1.00
C3       0.22694    1.04232    0.22370   1.00
C3       0.27967    0.95768    0.23148   1.00
C3a      0.27403    1.04254    0.27644   1.00
C2       0.25001    0.89488    0.24992   1.00
C2       0.25002    1.10512    0.24992   1.00
C3       0.21998    0.91595    0.26811   1.00
C3       0.22680    1.08363    0.22376   1.00
C3       0.27979    0.91637    0.23158   1.00
C3       0.27350    1.08405    0.27601   1.00
C5       0.18604    0.97772    0.28909   1.00
H1       0.20846    1.02691    0.20321   1.00
H1       0.19688    0.89979    0.28231   1.00
H1       0.20838    1.09901    0.20324   1.00
H1       0.30336    0.90099    0.21726   1.00
H1       0.29152    1.10021    0.29628   1.00
C5       0.29994    1.02228    0.30591   1.00
H1       0.30328    0.97309    0.21720   1.00
H2       0.30692    1.04256    0.33020   1.00
H2       0.28424    0.99731    0.31932   1.00
H2       0.17233    0.95744    0.31033   1.00
H2       0.19719    1.00269    0.30647   1.00
N1       0.33605    1.00857    0.28768   1.00
C6       0.36444    1.03073    0.27275   1.00
C6       0.34744    0.97154    0.28380   1.00
C6       0.39410    1.00759    0.25867   1.00
C6       0.38330    0.96995    0.26570   1.00
H3       0.36362    1.06197    0.27175   1.00
H3       0.33059    0.94700    0.29324   1.00
H3       0.42066    1.01713    0.24485   1.00
H3       0.39972    0.94425    0.25842   1.00
N1       0.15673    0.99143    0.26121   1.00
C6       0.14695    1.02846    0.25420   1.00
C6       0.13387    0.96927    0.23871   1.00
C6       0.11785    1.03005    0.22652   1.00
C6       0.10954    0.99241    0.21666   1.00
H3       0.16035    1.05300    0.26811   1.00
H3       0.13494    0.93803    0.23799   1.00
H3       0.10423    1.05575    0.21480   1.00
H3       0.08811    0.98287    0.19576   1.00
C4       0.02085    0.74997    0.25020   1.00
C4       -0.02085   0.75003    0.24980   1.00
C3a      0.04254    0.76837    0.28065   1.00
C3       -0.04232   0.72370    0.27306   1.00
C3       0.04232    0.73148    0.22033   1.00
C3a      -0.04254   0.77644    0.22597   1.00
C2       0.10512    0.74992    0.24999   1.00
C2       -0.10512   0.74992    0.24998   1.00
C3       0.08405    0.76811    0.28002   1.00
C3       -0.08363   0.72376    0.27320   1.00
C3       0.08363    0.73158    0.22021   1.00
C3       -0.08405   0.77601    0.22650   1.00
C5       0.02228    0.78909    0.31396   1.00
H1       -0.02691   0.70321    0.29154   1.00
H1       0.10021    0.78231    0.30312   1.00
H1       -0.09901   0.70324    0.29162   1.00
H1       0.09901    0.71726    0.19664   1.00
H1       -0.10021   0.79628    0.20848   1.00
C5       -0.02228   0.80591    0.20006   1.00
H1       0.02691    0.71720    0.19672   1.00
H2       -0.04256   0.83020    0.19308   1.00
H2       0.00269    0.81932    0.21576   1.00
H2       0.04256    0.81033    0.32767   1.00
H2       -0.00269   0.80647    0.30281   1.00
N1       -0.00857   0.78768    0.16395   1.00
C6       -0.03073   0.77275    0.13556   1.00
C6       0.02846    0.78380    0.15256   1.00
C6       -0.00759   0.75867    0.10590   1.00
C6       0.03005    0.76570    0.11670   1.00
H3       -0.06197   0.77175    0.13638   1.00
H3       0.05300    0.79324    0.16941   1.00
H3       -0.01713   0.74485    0.07934   1.00
H3       0.05575    0.75842    0.10028   1.00
N1       0.00857    0.76121    0.34327   1.00
C6       -0.02846   0.75420    0.35305   1.00
C6       0.03073    0.73871    0.36613   1.00
C6       -0.03005   0.72652    0.38215   1.00
C6       0.00759    0.71666    0.39046   1.00
H3       -0.05300   0.76811    0.33965   1.00
H3       0.06197    0.73799    0.36506   1.00
H3       -0.05575   0.71480    0.39577   1.00
H3       0.01713    0.69576    0.41189   1.00
C4       0.47915    0.74997    0.24980   1.00
C4       0.52085    0.75003    0.25020   1.00
C3a      0.45746    0.76837    0.21935   1.00
C3       0.54232    0.72370    0.22694   1.00
C3       0.45768    0.73148    0.27967   1.00
C3a      0.54254    0.77644    0.27403   1.00
C2       0.39488    0.74992    0.25001   1.00
C2       0.60512    0.74992    0.25002   1.00
C3       0.41595    0.76811    0.21998   1.00
C3       0.58363    0.72376    0.22680   1.00
C3       0.41637    0.73158    0.27979   1.00
C3       0.58405    0.77601    0.27350   1.00
C5       0.47772    0.78909    0.18604   1.00
H1       0.52691    0.70321    0.20846   1.00
H1       0.39979    0.78231    0.19688   1.00
H1       0.59901    0.70324    0.20838   1.00
H1       0.40099    0.71726    0.30336   1.00
H1       0.60021    0.79628    0.29152   1.00
C5       0.52228    0.80591    0.29994   1.00
H1       0.47309    0.71720    0.30328   1.00
H2       0.54256    0.83020    0.30692   1.00
H2       0.49731    0.81932    0.28424   1.00
H2       0.45744    0.81033    0.17233   1.00
H2       0.50269    0.80647    0.19719   1.00
N1       0.50857    0.78768    0.33605   1.00
C6       0.53073    0.77275    0.36444   1.00
C6       0.47154    0.78380    0.34744   1.00
C6       0.50759    0.75867    0.39410   1.00
C6       0.46995    0.76570    0.38330   1.00
H3       0.56197    0.77175    0.36362   1.00
H3       0.44700    0.79324    0.33059   1.00
H3       0.51713    0.74485    0.42066   1.00
H3       0.44425    0.75842    0.39972   1.00
N1       0.49143    0.76121    0.15673   1.00
C6       0.52846    0.75420    0.14695   1.00
C6       0.46927    0.73871    0.13387   1.00
C6       0.53005    0.72652    0.11785   1.00
C6       0.49241    0.71666    0.10954   1.00
H3       0.55300    0.76811    0.16035   1.00
H3       0.43803    0.73799    0.13494   1.00
H3       0.55575    0.71480    0.10423   1.00
H3       0.48287    0.69576    0.08811   1.00
C4       0.25020    0.52085    0.24997   1.00
C4       0.24980    0.47915    0.25003   1.00
C3a      0.28065    0.54254    0.26837   1.00
C3       0.27306    0.45768    0.22370   1.00
C3       0.22033    0.54232    0.23148   1.00
C3a      0.22597    0.45746    0.27644   1.00
C2       0.24999    0.60512    0.24992   1.00
C2       0.24998    0.39488    0.24992   1.00
C3       0.28002    0.58405    0.26811   1.00
C3       0.27320    0.41637    0.22376   1.00
C3       0.22021    0.58363    0.23158   1.00
C3       0.22650    0.41595    0.27601   1.00
C5       0.31396    0.52228    0.28909   1.00
H1       0.29154    0.47309    0.20321   1.00
H1       0.30312    0.60021    0.28231   1.00
H1       0.29162    0.40099    0.20324   1.00
H1       0.19664    0.59901    0.21726   1.00
H1       0.20848    0.39979    0.29628   1.00
C5       0.20006    0.47772    0.30591   1.00
H1       0.19672    0.52691    0.21720   1.00
H2       0.19308    0.45744    0.33020   1.00
H2       0.21576    0.50269    0.31932   1.00
H2       0.32767    0.54256    0.31033   1.00
H2       0.30281    0.49731    0.30647   1.00
N1       0.16395    0.49143    0.28768   1.00
C6       0.13556    0.46927    0.27275   1.00
C6       0.15256    0.52846    0.28380   1.00
C6       0.10590    0.49241    0.25867   1.00
C6       0.11670    0.53005    0.26570   1.00
H3       0.13638    0.43803    0.27175   1.00
H3       0.16941    0.55300    0.29324   1.00
H3       0.07934    0.48287    0.24485   1.00
H3       0.10028    0.55575    0.25842   1.00
N1       0.34327    0.50857    0.26121   1.00
C6       0.35305    0.47154    0.25420   1.00
C6       0.36613    0.53073    0.23871   1.00
C6       0.38215    0.46995    0.22652   1.00
C6       0.39046    0.50759    0.21666   1.00
H3       0.33965    0.44700    0.26811   1.00
H3       0.36506    0.56197    0.23799   1.00
H3       0.39577    0.44425    0.21480   1.00
H3       0.41189    0.51713    0.19576   1.00
C4       0.24997    0.75020    0.02085   1.00
C4       0.25003    0.74980    -0.02085   1.00
C3a      0.26837    0.78065    0.04254   1.00
C3       0.22370    0.77306    -0.04232   1.00
C3       0.23148    0.72033    0.04232   1.00
C3a      0.27644    0.72597    -0.04254   1.00
C2       0.24992    0.74999    0.10512   1.00
C2       0.24992    0.74998    -0.10512   1.00
C3       0.26811    0.78002    0.08405   1.00
C3       0.22376    0.77320    -0.08363   1.00
C3       0.23158    0.72021    0.08363   1.00
C3       0.27601    0.72650    -0.08405   1.00
C5       0.28909    0.81396    0.02228   1.00
H1       0.20321    0.79154    -0.02691   1.00
H1       0.28231    0.80312    0.10021   1.00
H1       0.20324    0.79162    -0.09901   1.00
H1       0.21726    0.69664    0.09901   1.00
H1       0.29628    0.70848    -0.10021   1.00
C5       0.30591    0.70006    -0.02228   1.00
H1       0.21720    0.69672    0.02691   1.00
H2       0.33020    0.69308    -0.04256   1.00
H2       0.31932    0.71576    0.00269   1.00
H2       0.31033    0.82767    0.04256   1.00
H2       0.30647    0.80281    -0.00269   1.00
N1       0.28768    0.66395    -0.00857   1.00
C6       0.27275    0.63556    -0.03073   1.00
C6       0.28380    0.65256    0.02846   1.00
C6       0.25867    0.60590    -0.00759   1.00
C6       0.26570    0.61670    0.03005   1.00
H3       0.27175    0.63638    -0.06197   1.00
H3       0.29324    0.66941    0.05300   1.00
H3       0.24485    0.57934    -0.01713   1.00
H3       0.25842    0.60028    0.05575   1.00
N1       0.26121    0.84327    0.00857   1.00
C6       0.25420    0.85305    -0.02846   1.00
C6       0.23871    0.86613    0.03073   1.00
C6       0.22652    0.88215    -0.03005   1.00
C6       0.21666    0.89046    0.00759   1.00
H3       0.26811    0.83965    -0.05300   1.00
H3       0.23799    0.86506    0.06197   1.00
H3       0.21480    0.89577    -0.05575   1.00
H3       0.19576    0.91189    0.01713   1.00
C4       0.74997    0.24980    0.47915   1.00
C4       0.75003    0.25020    0.52085   1.00
C3a      0.76837    0.21935    0.45746   1.00
C3       0.72370    0.22694    0.54232   1.00
C3       0.73148    0.27967    0.45768   1.00
C3a      0.77644    0.27403    0.54254   1.00
C2       0.74992    0.25001    0.39488   1.00
C2       0.74992    0.25002    0.60512   1.00
C3       0.76811    0.21998    0.41595   1.00
C3       0.72376    0.22680    0.58363   1.00
C3       0.73158    0.27979    0.41637   1.00
C3       0.77601    0.27350    0.58405   1.00
C5       0.78909    0.18604    0.47772   1.00
H1       0.70321    0.20846    0.52691   1.00
H1       0.78231    0.19688    0.39979   1.00
H1       0.70324    0.20838    0.59901   1.00
H1       0.71726    0.30336    0.40099   1.00
H1       0.79628    0.29152    0.60021   1.00
C5       0.80591    0.29994    0.52228   1.00
H1       0.71720    0.30328    0.47309   1.00
H2       0.83020    0.30692    0.54256   1.00
H2       0.81932    0.28424    0.49731   1.00
H2       0.81033    0.17233    0.45744   1.00
H2       0.80647    0.19719    0.50269   1.00
N1       0.78768    0.33605    0.50857   1.00
C6       0.77275    0.36444    0.53073   1.00
C6       0.78380    0.34744    0.47154   1.00
C6       0.75867    0.39410    0.50759   1.00
C6       0.76570    0.38330    0.46995   1.00
H3       0.77175    0.36362    0.56197   1.00
H3       0.79324    0.33059    0.44700   1.00
H3       0.74485    0.42066    0.51713   1.00
H3       0.75842    0.39972    0.44425   1.00
N1       0.76121    0.15673    0.49143   1.00
C6       0.75420    0.14695    0.52846   1.00
C6       0.73871    0.13387    0.46927   1.00
C6       0.72652    0.11785    0.53005   1.00
C6       0.71666    0.10954    0.49241   1.00
H3       0.76811    0.16035    0.55300   1.00
H3       0.73799    0.13494    0.43803   1.00
H3       0.71480    0.10423    0.55575   1.00
H3       0.69576    0.08811    0.48287   1.00
C4       0.74980    0.47915    0.24997   1.00
C4       0.75020    0.52085    0.25003   1.00
C3a      0.71935    0.45746    0.26837   1.00
C3       0.72694    0.54232    0.22370   1.00
C3       0.77967    0.45768    0.23148   1.00
C3a      0.77403    0.54254    0.27644   1.00
C2       0.75001    0.39488    0.24992   1.00
C2       0.75002    0.60512    0.24992   1.00
C3       0.71998    0.41595    0.26811   1.00
C3       0.72680    0.58363    0.22376   1.00
C3       0.77979    0.41637    0.23158   1.00
C3       0.77350    0.58405    0.27601   1.00
C5       0.68604    0.47772    0.28909   1.00
H1       0.70846    0.52691    0.20321   1.00
H1       0.69688    0.39979    0.28231   1.00
H1       0.70838    0.59901    0.20324   1.00
H1       0.80336    0.40099    0.21726   1.00
H1       0.79152    0.60021    0.29628   1.00
C5       0.79994    0.52228    0.30591   1.00
H1       0.80328    0.47309    0.21720   1.00
H2       0.80692    0.54256    0.33020   1.00
H2       0.78424    0.49731    0.31932   1.00
H2       0.67233    0.45744    0.31033   1.00
H2       0.69719    0.50269    0.30647   1.00
N1       0.83605    0.50857    0.28768   1.00
C6       0.86444    0.53073    0.27275   1.00
C6       0.84744    0.47154    0.28380   1.00
C6       0.89410    0.50759    0.25867   1.00
C6       0.88330    0.46995    0.26570   1.00
H3       0.86362    0.56197    0.27175   1.00
H3       0.83059    0.44700    0.29324   1.00
H3       0.92066    0.51713    0.24485   1.00
H3       0.89972    0.44425    0.25842   1.00
N1       0.65673    0.49143    0.26121   1.00
C6       0.64695    0.52846    0.25420   1.00
C6       0.63387    0.46927    0.23871   1.00
C6       0.61785    0.53005    0.22652   1.00
C6       0.60954    0.49241    0.21666   1.00
H3       0.66035    0.55300    0.26811   1.00
H3       0.63494    0.43803    0.23799   1.00
H3       0.60423    0.55575    0.21480   1.00
H3       0.58811    0.48287    0.19576   1.00
C4       0.52085    0.24997    0.25020   1.00
C4       0.47915    0.25003    0.24980   1.00
C3a      0.54254    0.26837    0.28065   1.00
C3       0.45768    0.22370    0.27306   1.00
C3       0.54232    0.23148    0.22033   1.00
C3a      0.45746    0.27644    0.22597   1.00
C2       0.60512    0.24992    0.24999   1.00
C2       0.39488    0.24992    0.24998   1.00
C3       0.58405    0.26811    0.28002   1.00
C3       0.41637    0.22376    0.27320   1.00
C3       0.58363    0.23158    0.22021   1.00
C3       0.41595    0.27601    0.22650   1.00
C5       0.52228    0.28909    0.31396   1.00
H1       0.47309    0.20321    0.29154   1.00
H1       0.60021    0.28231    0.30312   1.00
H1       0.40099    0.20324    0.29162   1.00
H1       0.59901    0.21726    0.19664   1.00
H1       0.39979    0.29628    0.20848   1.00
C5       0.47772    0.30591    0.20006   1.00
H1       0.52691    0.21720    0.19672   1.00
H2       0.45744    0.33020    0.19308   1.00
H2       0.50269    0.31932    0.21576   1.00
H2       0.54256    0.31033    0.32767   1.00
H2       0.49731    0.30647    0.30281   1.00
N1       0.49143    0.28768    0.16395   1.00
C6       0.46927    0.27275    0.13556   1.00
C6       0.52846    0.28380    0.15256   1.00
C6       0.49241    0.25867    0.10590   1.00
C6       0.53005    0.26570    0.11670   1.00
H3       0.43803    0.27175    0.13638   1.00
H3       0.55300    0.29324    0.16941   1.00
H3       0.48287    0.24485    0.07934   1.00
H3       0.55575    0.25842    0.10028   1.00
N1       0.50857    0.26121    0.34327   1.00
C6       0.47154    0.25420    0.35305   1.00
C6       0.53073    0.23871    0.36613   1.00
C6       0.46995    0.22652    0.38215   1.00
C6       0.50759    0.21666    0.39046   1.00
H3       0.44700    0.26811    0.33965   1.00
H3       0.56197    0.23799    0.36506   1.00
H3       0.44425    0.21480    0.39577   1.00
H3       0.51713    0.19576    0.41189   1.00
C4       0.97915    0.24997    0.24980   1.00
C4       1.02085    0.25003    0.25020   1.00
C3a      0.95746    0.26837    0.21935   1.00
C3       1.04232    0.22370    0.22694   1.00
C3       0.95768    0.23148    0.27967   1.00
C3a      1.04254    0.27644    0.27403   1.00
C2       0.89488    0.24992    0.25001   1.00
C2       1.10512    0.24992    0.25002   1.00
C3       0.91595    0.26811    0.21998   1.00
C3       1.08363    0.22376    0.22680   1.00
C3       0.91637    0.23158    0.27979   1.00
C3       1.08405    0.27601    0.27350   1.00
C5       0.97772    0.28909    0.18604   1.00
H1       1.02691    0.20321    0.20846   1.00
H1       0.89979    0.28231    0.19688   1.00
H1       1.09901    0.20324    0.20838   1.00
H1       0.90099    0.21726    0.30336   1.00
H1       1.10021    0.29628    0.29152   1.00
C5       1.02228    0.30591    0.29994   1.00
H1       0.97309    0.21720    0.30328   1.00
H2       1.04256    0.33020    0.30692   1.00
H2       0.99731    0.31932    0.28424   1.00
H2       0.95744    0.31033    0.17233   1.00
H2       1.00269    0.30647    0.19719   1.00
N1       1.00857    0.28768    0.33605   1.00
C6       1.03073    0.27275    0.36444   1.00
C6       0.97154    0.28380    0.34744   1.00
C6       1.00759    0.25867    0.39410   1.00
C6       0.96995    0.26570    0.38330   1.00
H3       1.06197    0.27175    0.36362   1.00
H3       0.94700    0.29324    0.33059   1.00
H3       1.01713    0.24485    0.42066   1.00
H3       0.94425    0.25842    0.39972   1.00
N1       0.99143    0.26121    0.15673   1.00
C6       1.02846    0.25420    0.14695   1.00
C6       0.96927    0.23871    0.13387   1.00
C6       1.03005    0.22652    0.11785   1.00
C6       0.99241    0.21666    0.10954   1.00
H3       1.05300    0.26811    0.16035   1.00
H3       0.93803    0.23799    0.13494   1.00
H3       1.05575    0.21480    0.10423   1.00
H3       0.98287    0.19576    0.08811   1.00
C4       0.75020    0.02085    0.24997   1.00
C4       0.74980    -0.02085   0.25003   1.00
C3a      0.78065    0.04254    0.26837   1.00
C3       0.77306    -0.04232   0.22370   1.00
C3       0.72033    0.04232    0.23148   1.00
C3a      0.72597    -0.04254   0.27644   1.00
C2       0.74999    0.10512    0.24992   1.00
C2       0.74998    -0.10512   0.24992   1.00
C3       0.78002    0.08405    0.26811   1.00
C3       0.77320    -0.08363   0.22376   1.00
C3       0.72021    0.08363    0.23158   1.00
C3       0.72650    -0.08405   0.27601   1.00
C5       0.81396    0.02228    0.28909   1.00
H1       0.79154    -0.02691   0.20321   1.00
H1       0.80312    0.10021    0.28231   1.00
H1       0.79162    -0.09901   0.20324   1.00
H1       0.69664    0.09901    0.21726   1.00
H1       0.70848    -0.10021   0.29628   1.00
C5       0.70006    -0.02228   0.30591   1.00
H1       0.69672    0.02691    0.21720   1.00
H2       0.69308    -0.04256   0.33020   1.00
H2       0.71576    0.00269    0.31932   1.00
H2       0.82767    0.04256    0.31033   1.00
H2       0.80281    -0.00269   0.30647   1.00
N1       0.66395    -0.00857   0.28768   1.00
C6       0.63556    -0.03073   0.27275   1.00
C6       0.65256    0.02846    0.28380   1.00
C6       0.60590    -0.00759   0.25867   1.00
C6       0.61670    0.03005    0.26570   1.00
H3       0.63638    -0.06197   0.27175   1.00
H3       0.66941    0.05300    0.29324   1.00
H3       0.57934    -0.01713   0.24485   1.00
H3       0.60028    0.05575    0.25842   1.00
N1       0.84327    0.00857    0.26121   1.00
C6       0.85305    -0.02846   0.25420   1.00
C6       0.86613    0.03073    0.23871   1.00
C6       0.88215    -0.03005   0.22652   1.00
C6       0.89046    0.00759    0.21666   1.00
H3       0.83965    -0.05300   0.26811   1.00
H3       0.86506    0.06197    0.23799   1.00
H3       0.89577    -0.05575   0.21480   1.00
H3       0.91189    0.01713    0.19576   1.00
C4       0.74997    0.25020    0.02085   1.00
C4       0.75003    0.24980    -0.02085   1.00
C3a      0.76837    0.28065    0.04254   1.00
C3       0.72370    0.27306    -0.04232   1.00
C3       0.73148    0.22033    0.04232   1.00
C3a      0.77644    0.22597    -0.04254   1.00
C2       0.74992    0.24999    0.10512   1.00
C2       0.74992    0.24998    -0.10512   1.00
C3       0.76811    0.28002    0.08405   1.00
C3       0.72376    0.27320    -0.08363   1.00
C3       0.73158    0.22021    0.08363   1.00
C3       0.77601    0.22650    -0.08405   1.00
C5       0.78909    0.31396    0.02228   1.00
H1       0.70321    0.29154    -0.02691   1.00
H1       0.78231    0.30312    0.10021   1.00
H1       0.70324    0.29162    -0.09901   1.00
H1       0.71726    0.19664    0.09901   1.00
H1       0.79628    0.20848    -0.10021   1.00
C5       0.80591    0.20006    -0.02228   1.00
H1       0.71720    0.19672    0.02691   1.00
H2       0.83020    0.19308    -0.04256   1.00
H2       0.81932    0.21576    0.00269   1.00
H2       0.81033    0.32767    0.04256   1.00
H2       0.80647    0.30281    -0.00269   1.00
N1       0.78768    0.16395    -0.00857   1.00
C6       0.77275    0.13556    -0.03073   1.00
C6       0.78380    0.15256    0.02846   1.00
C6       0.75867    0.10590    -0.00759   1.00
C6       0.76570    0.11670    0.03005   1.00
H3       0.77175    0.13638    -0.06197   1.00
H3       0.79324    0.16941    0.05300   1.00
H3       0.74485    0.07934    -0.01713   1.00
H3       0.75842    0.10028    0.05575   1.00
N1       0.76121    0.34327    0.00857   1.00
C6       0.75420    0.35305    -0.02846   1.00
C6       0.73871    0.36613    0.03073   1.00
C6       0.72652    0.38215    -0.03005   1.00
C6       0.71666    0.39046    0.00759   1.00
H3       0.76811    0.33965    -0.05300   1.00
H3       0.73799    0.36506    0.06197   1.00
H3       0.71480    0.39577    -0.05575   1.00
H3       0.69576    0.41189    0.01713   1.00
C4       0.91497    0.91480    1.14415   1.00
C4       0.91503    0.91520    1.18585   1.00
C3a      0.93337    0.88435    1.12246   1.00
C3       0.88870    0.89194    1.20732   1.00
C3       0.89648    0.94467    1.12268   1.00
C3a      0.94144    0.93903    1.20754   1.00
C2       0.91492    0.91501    1.05988   1.00
C2       0.91492    0.91502    1.27012   1.00
C3       0.93311    0.88498    1.08095   1.00
C3       0.88876    0.89180    1.24863   1.00
C3       0.89658    0.94479    1.08137   1.00
C3       0.94101    0.93850    1.24905   1.00
C5       0.95409    0.85104    1.14272   1.00
H1       0.86821    0.87346    1.19191   1.00
H1       0.94731    0.86188    1.06479   1.00
H1       0.86824    0.87338    1.26401   1.00
H1       0.88226    0.96836    1.06599   1.00
H1       0.96128    0.95652    1.26521   1.00
C5       0.97091    0.96494    1.18728   1.00
H1       0.88220    0.96828    1.13809   1.00
H2       0.99520    0.97192    1.20756   1.00
H2       0.98432    0.94924    1.16231   1.00
H2       0.97533    0.83733    1.12244   1.00
H2       0.97147    0.86219    1.16769   1.00
N1       0.95268    1.00105    1.17357   1.00
C6       0.93775    1.02944    1.19573   1.00
C6       0.94880    1.01244    1.13654   1.00
C6       0.92367    1.05910    1.17259   1.00
C6       0.93070    1.04830    1.13495   1.00
H3       0.93675    1.02862    1.22697   1.00
H3       0.95824    0.99559    1.11200   1.00
H3       0.90985    1.08566    1.18213   1.00
H3       0.92342    1.06472    1.10925   1.00
N1       0.92621    0.82173    1.15643   1.00
C6       0.91920    0.81195    1.19346   1.00
C6       0.90371    0.79887    1.13427   1.00
C6       0.89152    0.78285    1.19505   1.00
C6       0.88166    0.77454    1.15741   1.00
H3       0.93311    0.82535    1.21800   1.00
H3       0.90299    0.79994    1.10303   1.00
H3       0.87980    0.76923    1.22075   1.00
H3       0.86076    0.75311    1.14787   1.00
C4       0.91480    1.14415    0.91497   1.00
C4       0.91520    1.18585    0.91503   1.00
C3a      0.88435    1.12246    0.93337   1.00
C3       0.89194    1.20732    0.88870   1.00
C3       0.94467    1.12268    0.89648   1.00
C3a      0.93903    1.20754    0.94144   1.00
C2       0.91501    1.05988    0.91492   1.00
C2       0.91502    1.27012    0.91492   1.00
C3       0.88498    1.08095    0.93311   1.00
C3       0.89180    1.24863    0.88876   1.00
C3       0.94479    1.08137    0.89658   1.00
C3       0.93850    1.24905    0.94101   1.00
C5       0.85104    1.14272    0.95409   1.00
H1       0.87346    1.19191    0.86821   1.00
H1       0.86188    1.06479    0.94731   1.00
H1       0.87338    1.26401    0.86824   1.00
H1       0.96836    1.06599    0.88226   1.00
H1       0.95652    1.26521    0.96128   1.00
C5       0.96494    1.18728    0.97091   1.00
H1       0.96828    1.13809    0.88220   1.00
H2       0.97192    1.20756    0.99520   1.00
H2       0.94924    1.16231    0.98432   1.00
H2       0.83733    1.12244    0.97533   1.00
H2       0.86219    1.16769    0.97147   1.00
N1       1.00105    1.17357    0.95268   1.00
C6       1.02944    1.19573    0.93775   1.00
C6       1.01244    1.13654    0.94880   1.00
C6       1.05910    1.17259    0.92367   1.00
C6       1.04830    1.13495    0.93070   1.00
H3       1.02862    1.22697    0.93675   1.00
H3       0.99559    1.11200    0.95824   1.00
H3       1.08566    1.18213    0.90985   1.00
H3       1.06472    1.10925    0.92342   1.00
N1       0.82173    1.15643    0.92621   1.00
C6       0.81195    1.19346    0.91920   1.00
C6       0.79887    1.13427    0.90371   1.00
C6       0.78285    1.19505    0.89152   1.00
C6       0.77454    1.15741    0.88166   1.00
H3       0.82535    1.21800    0.93311   1.00
H3       0.79994    1.10303    0.90299   1.00
H3       0.76923    1.22075    0.87980   1.00
H3       0.75311    1.14787    0.86076   1.00
C4       0.68585    0.91497    0.91520   1.00
C4       0.64415    0.91503    0.91480   1.00
C3a      0.70754    0.93337    0.94565   1.00
C3       0.62268    0.88870    0.93806   1.00
C3       0.70732    0.89648    0.88533   1.00
C3a      0.62246    0.94144    0.89097   1.00
C2       0.77012    0.91492    0.91499   1.00
C2       0.55988    0.91492    0.91498   1.00
C3       0.74905    0.93311    0.94502   1.00
C3       0.58137    0.88876    0.93820   1.00
C3       0.74863    0.89658    0.88521   1.00
C3       0.58095    0.94101    0.89150   1.00
C5       0.68728    0.95409    0.97896   1.00
H1       0.63809    0.86821    0.95654   1.00
H1       0.76521    0.94731    0.96812   1.00
H1       0.56599    0.86824    0.95662   1.00
H1       0.76401    0.88226    0.86164   1.00
H1       0.56479    0.96128    0.87348   1.00
C5       0.64272    0.97091    0.86506   1.00
H1       0.69191    0.88220    0.86172   1.00
H2       0.62244    0.99520    0.85808   1.00
H2       0.66769    0.98432    0.88076   1.00
H2       0.70756    0.97533    0.99267   1.00
H2       0.66231    0.97147    0.96781   1.00
N1       0.65643    0.95268    0.82895   1.00
C6       0.63427    0.93775    0.80056   1.00
C6       0.69346    0.94880    0.81756   1.00
C6       0.65741    0.92367    0.77090   1.00
C6       0.69505    0.93070    0.78170   1.00
H3       0.60303    0.93675    0.80138   1.00
H3       0.71800    0.95824    0.83441   1.00
H3       0.64787    0.90985    0.74434   1.00
H3       0.72075    0.92342    0.76528   1.00
N1       0.67357    0.92621    1.00827   1.00
C6       0.63654    0.91920    1.01805   1.00
C6       0.69573    0.90371    1.03113   1.00
C6       0.63495    0.89152    1.04715   1.00
C6       0.67259    0.88166    1.05546   1.00
H3       0.61200    0.93311    1.00465   1.00
H3       0.72697    0.90299    1.03006   1.00
H3       0.60925    0.87980    1.06077   1.00
H3       0.68213    0.86076    1.07689   1.00
C4       1.14415    0.91497    0.91480   1.00
C4       1.18585    0.91503    0.91520   1.00
C3a      1.12246    0.93337    0.88435   1.00
C3       1.20732    0.88870    0.89194   1.00
C3       1.12268    0.89648    0.94467   1.00
C3a      1.20754    0.94144    0.93903   1.00
C2       1.05988    0.91492    0.91501   1.00
C2       1.27012    0.91492    0.91502   1.00
C3       1.08095    0.93311    0.88498   1.00
C3       1.24863    0.88876    0.89180   1.00
C3       1.08137    0.89658    0.94479   1.00
C3       1.24905    0.94101    0.93850   1.00
C5       1.14272    0.95409    0.85104   1.00
H1       1.19191    0.86821    0.87346   1.00
H1       1.06479    0.94731    0.86188   1.00
H1       1.26401    0.86824    0.87338   1.00
H1       1.06599    0.88226    0.96836   1.00
H1       1.26521    0.96128    0.95652   1.00
C5       1.18728    0.97091    0.96494   1.00
H1       1.13809    0.88220    0.96828   1.00
H2       1.20756    0.99520    0.97192   1.00
H2       1.16231    0.98432    0.94924   1.00
H2       1.12244    0.97533    0.83733   1.00
H2       1.16769    0.97147    0.86219   1.00
N1       1.17357    0.95268    1.00105   1.00
C6       1.19573    0.93775    1.02944   1.00
C6       1.13654    0.94880    1.01244   1.00
C6       1.17259    0.92367    1.05910   1.00
C6       1.13495    0.93070    1.04830   1.00
H3       1.22697    0.93675    1.02862   1.00
H3       1.11200    0.95824    0.99559   1.00
H3       1.18213    0.90985    1.08566   1.00
H3       1.10925    0.92342    1.06472   1.00
N1       1.15643    0.92621    0.82173   1.00
C6       1.19346    0.91920    0.81195   1.00
C6       1.13427    0.90371    0.79887   1.00
C6       1.19505    0.89152    0.78285   1.00
C6       1.15741    0.88166    0.77454   1.00
H3       1.21800    0.93311    0.82535   1.00
H3       1.10303    0.90299    0.79994   1.00
H3       1.22075    0.87980    0.76923   1.00
H3       1.14787    0.86076    0.75311   1.00
C4       0.91520    0.68585    0.91497   1.00
C4       0.91480    0.64415    0.91503   1.00
C3a      0.94565    0.70754    0.93337   1.00
C3       0.93806    0.62268    0.88870   1.00
C3       0.88533    0.70732    0.89648   1.00
C3a      0.89097    0.62246    0.94144   1.00
C2       0.91499    0.77012    0.91492   1.00
C2       0.91498    0.55988    0.91492   1.00
C3       0.94502    0.74905    0.93311   1.00
C3       0.93820    0.58137    0.88876   1.00
C3       0.88521    0.74863    0.89658   1.00
C3       0.89150    0.58095    0.94101   1.00
C5       0.97896    0.68728    0.95409   1.00
H1       0.95654    0.63809    0.86821   1.00
H1       0.96812    0.76521    0.94731   1.00
H1       0.95662    0.56599    0.86824   1.00
H1       0.86164    0.76401    0.88226   1.00
H1       0.87348    0.56479    0.96128   1.00
C5       0.86506    0.64272    0.97091   1.00
H1       0.86172    0.69191    0.88220   1.00
H2       0.85808    0.62244    0.99520   1.00
H2       0.88076    0.66769    0.98432   1.00
H2       0.99267    0.70756    0.97533   1.00
H2       0.96781    0.66231    0.97147   1.00
N1       0.82895    0.65643    0.95268   1.00
C6       0.80056    0.63427    0.93775   1.00
C6       0.81756    0.69346    0.94880   1.00
C6       0.77090    0.65741    0.92367   1.00
C6       0.78170    0.69505    0.93070   1.00
H3       0.80138    0.60303    0.93675   1.00
H3       0.83441    0.71800    0.95824   1.00
H3       0.74434    0.64787    0.90985   1.00
H3       0.76528    0.72075    0.92342   1.00
N1       1.00827    0.67357    0.92621   1.00
C6       1.01805    0.63654    0.91920   1.00
C6       1.03113    0.69573    0.90371   1.00
C6       1.04715    0.63495    0.89152   1.00
C6       1.05546    0.67259    0.88166   1.00
H3       1.00465    0.61200    0.93311   1.00
H3       1.03006    0.72697    0.90299   1.00
H3       1.06077    0.60925    0.87980   1.00
H3       1.07689    0.68213    0.86076   1.00
C4       0.91497    0.91520    0.68585   1.00
C4       0.91503    0.91480    0.64415   1.00
C3a      0.93337    0.94565    0.70754   1.00
C3       0.88870    0.93806    0.62268   1.00
C3       0.89648    0.88533    0.70732   1.00
C3a      0.94144    0.89097    0.62246   1.00
C2       0.91492    0.91499    0.77012   1.00
C2       0.91492    0.91498    0.55988   1.00
C3       0.93311    0.94502    0.74905   1.00
C3       0.88876    0.93820    0.58137   1.00
C3       0.89658    0.88521    0.74863   1.00
C3       0.94101    0.89150    0.58095   1.00
C5       0.95409    0.97896    0.68728   1.00
H1       0.86821    0.95654    0.63809   1.00
H1       0.94731    0.96812    0.76521   1.00
H1       0.86824    0.95662    0.56599   1.00
H1       0.88226    0.86164    0.76401   1.00
H1       0.96128    0.87348    0.56479   1.00
C5       0.97091    0.86506    0.64272   1.00
H1       0.88220    0.86172    0.69191   1.00
H2       0.99520    0.85808    0.62244   1.00
H2       0.98432    0.88076    0.66769   1.00
H2       0.97533    0.99267    0.70756   1.00
H2       0.97147    0.96781    0.66231   1.00
N1       0.95268    0.82895    0.65643   1.00
C6       0.93775    0.80056    0.63427   1.00
C6       0.94880    0.81756    0.69346   1.00
C6       0.92367    0.77090    0.65741   1.00
C6       0.93070    0.78170    0.69505   1.00
H3       0.93675    0.80138    0.60303   1.00
H3       0.95824    0.83441    0.71800   1.00
H3       0.90985    0.74434    0.64787   1.00
H3       0.92342    0.76528    0.72075   1.00
N1       0.92621    1.00827    0.67357   1.00
C6       0.91920    1.01805    0.63654   1.00
C6       0.90371    1.03113    0.69573   1.00
C6       0.89152    1.04715    0.63495   1.00
C6       0.88166    1.05546    0.67259   1.00
H3       0.93311    1.00465    0.61200   1.00
H3       0.90299    1.03006    0.72697   1.00
H3       0.87980    1.06077    0.60925   1.00
H3       0.86076    1.07689    0.68213   1.00
C4       0.41497    0.41480    1.14415   1.00
C4       0.41503    0.41520    1.18585   1.00
C3a      0.43337    0.38435    1.12246   1.00
C3       0.38870    0.39194    1.20732   1.00
C3       0.39648    0.44467    1.12268   1.00
C3a      0.44144    0.43903    1.20754   1.00
C2       0.41492    0.41501    1.05988   1.00
C2       0.41492    0.41502    1.27012   1.00
C3       0.43311    0.38498    1.08095   1.00
C3       0.38876    0.39180    1.24863   1.00
C3       0.39658    0.44479    1.08137   1.00
C3       0.44101    0.43850    1.24905   1.00
C5       0.45409    0.35104    1.14272   1.00
H1       0.36821    0.37346    1.19191   1.00
H1       0.44731    0.36188    1.06479   1.00
H1       0.36824    0.37338    1.26401   1.00
H1       0.38226    0.46836    1.06599   1.00
H1       0.46128    0.45652    1.26521   1.00
C5       0.47091    0.46494    1.18728   1.00
H1       0.38220    0.46828    1.13809   1.00
H2       0.49520    0.47192    1.20756   1.00
H2       0.48432    0.44924    1.16231   1.00
H2       0.47533    0.33733    1.12244   1.00
H2       0.47147    0.36219    1.16769   1.00
N1       0.45268    0.50105    1.17357   1.00
C6       0.43775    0.52944    1.19573   1.00
C6       0.44880    0.51244    1.13654   1.00
C6       0.42367    0.55910    1.17259   1.00
C6       0.43070    0.54830    1.13495   1.00
H3       0.43675    0.52862    1.22697   1.00
H3       0.45824    0.49559    1.11200   1.00
H3       0.40985    0.58566    1.18213   1.00
H3       0.42342    0.56472    1.10925   1.00
N1       0.42621    0.32173    1.15643   1.00
C6       0.41920    0.31195    1.19346   1.00
C6       0.40371    0.29887    1.13427   1.00
C6       0.39152    0.28285    1.19505   1.00
C6       0.38166    0.27454    1.15741   1.00
H3       0.43311    0.32535    1.21800   1.00
H3       0.40299    0.29994    1.10303   1.00
H3       0.37980    0.26923    1.22075   1.00
H3       0.36076    0.25311    1.14787   1.00
C4       0.41480    0.64415    0.91497   1.00
C4       0.41520    0.68585    0.91503   1.00
C3a      0.38435    0.62246    0.93337   1.00
C3       0.39194    0.70732    0.88870   1.00
C3       0.44467    0.62268    0.89648   1.00
C3a      0.43903    0.70754    0.94144   1.00
C2       0.41501    0.55988    0.91492   1.00
C2       0.41502    0.77012    0.91492   1.00
C3       0.38498    0.58095    0.93311   1.00
C3       0.39180    0.74863    0.88876   1.00
C3       0.44479    0.58137    0.89658   1.00
C3       0.43850    0.74905    0.94101   1.00
C5       0.35104    0.64272    0.95409   1.00
H1       0.37346    0.69191    0.86821   1.00
H1       0.36188    0.56479    0.94731   1.00
H1       0.37338    0.76401    0.86824   1.00
H1       0.46836    0.56599    0.88226   1.00
H1       0.45652    0.76521    0.96128   1.00
C5       0.46494    0.68728    0.97091   1.00
H1       0.46828    0.63809    0.88220   1.00
H2       0.47192    0.70756    0.99520   1.00
H2       0.44924    0.66231    0.98432   1.00
H2       0.33733    0.62244    0.97533   1.00
H2       0.36219    0.66769    0.97147   1.00
N1       0.50105    0.67357    0.95268   1.00
C6       0.52944    0.69573    0.93775   1.00
C6       0.51244    0.63654    0.94880   1.00
C6       0.55910    0.67259    0.92367   1.00
C6       0.54830    0.63495    0.93070   1.00
H3       0.52862    0.72697    0.93675   1.00
H3       0.49559    0.61200    0.95824   1.00
H3       0.58566    0.68213    0.90985   1.00
H3       0.56472    0.60925    0.92342   1.00
N1       0.32173    0.65643    0.92621   1.00
C6       0.31195    0.69346    0.91920   1.00
C6       0.29887    0.63427    0.90371   1.00
C6       0.28285    0.69505    0.89152   1.00
C6       0.27454    0.65741    0.88166   1.00
H3       0.32535    0.71800    0.93311   1.00
H3       0.29994    0.60303    0.90299   1.00
H3       0.26923    0.72075    0.87980   1.00
H3       0.25311    0.64787    0.86076   1.00
C4       0.18585    0.41497    0.91520   1.00
C4       0.14415    0.41503    0.91480   1.00
C3a      0.20754    0.43337    0.94565   1.00
C3       0.12268    0.38870    0.93806   1.00
C3       0.20732    0.39648    0.88533   1.00
C3a      0.12246    0.44144    0.89097   1.00
C2       0.27012    0.41492    0.91499   1.00
C2       0.05988    0.41492    0.91498   1.00
C3       0.24905    0.43311    0.94502   1.00
C3       0.08137    0.38876    0.93820   1.00
C3       0.24863    0.39658    0.88521   1.00
C3       0.08095    0.44101    0.89150   1.00
C5       0.18728    0.45409    0.97896   1.00
H1       0.13809    0.36821    0.95654   1.00
H1       0.26521    0.44731    0.96812   1.00
H1       0.06599    0.36824    0.95662   1.00
H1       0.26401    0.38226    0.86164   1.00
H1       0.06479    0.46128    0.87348   1.00
C5       0.14272    0.47091    0.86506   1.00
H1       0.19191    0.38220    0.86172   1.00
H2       0.12244    0.49520    0.85808   1.00
H2       0.16769    0.48432    0.88076   1.00
H2       0.20756    0.47533    0.99267   1.00
H2       0.16231    0.47147    0.96781   1.00
N1       0.15643    0.45268    0.82895   1.00
C6       0.13427    0.43775    0.80056   1.00
C6       0.19346    0.44880    0.81756   1.00
C6       0.15741    0.42367    0.77090   1.00
C6       0.19505    0.43070    0.78170   1.00
H3       0.10303    0.43675    0.80138   1.00
H3       0.21800    0.45824    0.83441   1.00
H3       0.14787    0.40985    0.74434   1.00
H3       0.22075    0.42342    0.76528   1.00
N1       0.17357    0.42621    1.00827   1.00
C6       0.13654    0.41920    1.01805   1.00
C6       0.19573    0.40371    1.03113   1.00
C6       0.13495    0.39152    1.04715   1.00
C6       0.17259    0.38166    1.05546   1.00
H3       0.11200    0.43311    1.00465   1.00
H3       0.22697    0.40299    1.03006   1.00
H3       0.10925    0.37980    1.06077   1.00
H3       0.18213    0.36076    1.07689   1.00
C4       0.64415    0.41497    0.91480   1.00
C4       0.68585    0.41503    0.91520   1.00
C3a      0.62246    0.43337    0.88435   1.00
C3       0.70732    0.38870    0.89194   1.00
C3       0.62268    0.39648    0.94467   1.00
C3a      0.70754    0.44144    0.93903   1.00
C2       0.55988    0.41492    0.91501   1.00
C2       0.77012    0.41492    0.91502   1.00
C3       0.58095    0.43311    0.88498   1.00
C3       0.74863    0.38876    0.89180   1.00
C3       0.58137    0.39658    0.94479   1.00
C3       0.74905    0.44101    0.93850   1.00
C5       0.64272    0.45409    0.85104   1.00
H1       0.69191    0.36821    0.87346   1.00
H1       0.56479    0.44731    0.86188   1.00
H1       0.76401    0.36824    0.87338   1.00
H1       0.56599    0.38226    0.96836   1.00
H1       0.76521    0.46128    0.95652   1.00
C5       0.68728    0.47091    0.96494   1.00
H1       0.63809    0.38220    0.96828   1.00
H2       0.70756    0.49520    0.97192   1.00
H2       0.66231    0.48432    0.94924   1.00
H2       0.62244    0.47533    0.83733   1.00
H2       0.66769    0.47147    0.86219   1.00
N1       0.67357    0.45268    1.00105   1.00
C6       0.69573    0.43775    1.02944   1.00
C6       0.63654    0.44880    1.01244   1.00
C6       0.67259    0.42367    1.05910   1.00
C6       0.63495    0.43070    1.04830   1.00
H3       0.72697    0.43675    1.02862   1.00
H3       0.61200    0.45824    0.99559   1.00
H3       0.68213    0.40985    1.08566   1.00
H3       0.60925    0.42342    1.06472   1.00
N1       0.65643    0.42621    0.82173   1.00
C6       0.69346    0.41920    0.81195   1.00
C6       0.63427    0.40371    0.79887   1.00
C6       0.69505    0.39152    0.78285   1.00
C6       0.65741    0.38166    0.77454   1.00
H3       0.71800    0.43311    0.82535   1.00
H3       0.60303    0.40299    0.79994   1.00
H3       0.72075    0.37980    0.76923   1.00
H3       0.64787    0.36076    0.75311   1.00
C4       0.41520    0.18585    0.91497   1.00
C4       0.41480    0.14415    0.91503   1.00
C3a      0.44565    0.20754    0.93337   1.00
C3       0.43806    0.12268    0.88870   1.00
C3       0.38533    0.20732    0.89648   1.00
C3a      0.39097    0.12246    0.94144   1.00
C2       0.41499    0.27012    0.91492   1.00
C2       0.41498    0.05988    0.91492   1.00
C3       0.44502    0.24905    0.93311   1.00
C3       0.43820    0.08137    0.88876   1.00
C3       0.38521    0.24863    0.89658   1.00
C3       0.39150    0.08095    0.94101   1.00
C5       0.47896    0.18728    0.95409   1.00
H1       0.45654    0.13809    0.86821   1.00
H1       0.46812    0.26521    0.94731   1.00
H1       0.45662    0.06599    0.86824   1.00
H1       0.36164    0.26401    0.88226   1.00
H1       0.37348    0.06479    0.96128   1.00
C5       0.36506    0.14272    0.97091   1.00
H1       0.36172    0.19191    0.88220   1.00
H2       0.35808    0.12244    0.99520   1.00
H2       0.38076    0.16769    0.98432   1.00
H2       0.49267    0.20756    0.97533   1.00
H2       0.46781    0.16231    0.97147   1.00
N1       0.32895    0.15643    0.95268   1.00
C6       0.30056    0.13427    0.93775   1.00
C6       0.31756    0.19346    0.94880   1.00
C6       0.27090    0.15741    0.92367   1.00
C6       0.28170    0.19505    0.93070   1.00
H3       0.30138    0.10303    0.93675   1.00
H3       0.33441    0.21800    0.95824   1.00
H3       0.24434    0.14787    0.90985   1.00
H3       0.26528    0.22075    0.92342   1.00
N1       0.50827    0.17357    0.92621   1.00
C6       0.51805    0.13654    0.91920   1.00
C6       0.53113    0.19573    0.90371   1.00
C6       0.54715    0.13495    0.89152   1.00
C6       0.55546    0.17259    0.88166   1.00
H3       0.50465    0.11200    0.93311   1.00
H3       0.53006    0.22697    0.90299   1.00
H3       0.56077    0.10925    0.87980   1.00
H3       0.57689    0.18213    0.86076   1.00
C4       0.41497    0.41520    0.68585   1.00
C4       0.41503    0.41480    0.64415   1.00
C3a      0.43337    0.44565    0.70754   1.00
C3       0.38870    0.43806    0.62268   1.00
C3       0.39648    0.38533    0.70732   1.00
C3a      0.44144    0.39097    0.62246   1.00
C2       0.41492    0.41499    0.77012   1.00
C2       0.41492    0.41498    0.55988   1.00
C3       0.43311    0.44502    0.74905   1.00
C3       0.38876    0.43820    0.58137   1.00
C3       0.39658    0.38521    0.74863   1.00
C3       0.44101    0.39150    0.58095   1.00
C5       0.45409    0.47896    0.68728   1.00
H1       0.36821    0.45654    0.63809   1.00
H1       0.44731    0.46812    0.76521   1.00
H1       0.36824    0.45662    0.56599   1.00
H1       0.38226    0.36164    0.76401   1.00
H1       0.46128    0.37348    0.56479   1.00
C5       0.47091    0.36506    0.64272   1.00
H1       0.38220    0.36172    0.69191   1.00
H2       0.49520    0.35808    0.62244   1.00
H2       0.48432    0.38076    0.66769   1.00
H2       0.47533    0.49267    0.70756   1.00
H2       0.47147    0.46781    0.66231   1.00
N1       0.45268    0.32895    0.65643   1.00
C6       0.43775    0.30056    0.63427   1.00
C6       0.44880    0.31756    0.69346   1.00
C6       0.42367    0.27090    0.65741   1.00
C6       0.43070    0.28170    0.69505   1.00
H3       0.43675    0.30138    0.60303   1.00
H3       0.45824    0.33441    0.71800   1.00
H3       0.40985    0.24434    0.64787   1.00
H3       0.42342    0.26528    0.72075   1.00
N1       0.42621    0.50827    0.67357   1.00
C6       0.41920    0.51805    0.63654   1.00
C6       0.40371    0.53113    0.69573   1.00
C6       0.39152    0.54715    0.63495   1.00
C6       0.38166    0.55546    0.67259   1.00
H3       0.43311    0.50465    0.61200   1.00
H3       0.40299    0.53006    0.72697   1.00
H3       0.37980    0.56077    0.60925   1.00
H3       0.36076    0.57689    0.68213   1.00
C4       0.41497    0.91480    0.64415   1.00
C4       0.41503    0.91520    0.68585   1.00
C3a      0.43337    0.88435    0.62246   1.00
C3       0.38870    0.89194    0.70732   1.00
C3       0.39648    0.94467    0.62268   1.00
C3a      0.44144    0.93903    0.70754   1.00
C2       0.41492    0.91501    0.55988   1.00
C2       0.41492    0.91502    0.77012   1.00
C3       0.43311    0.88498    0.58095   1.00
C3       0.38876    0.89180    0.74863   1.00
C3       0.39658    0.94479    0.58137   1.00
C3       0.44101    0.93850    0.74905   1.00
C5       0.45409    0.85104    0.64272   1.00
H1       0.36821    0.87346    0.69191   1.00
H1       0.44731    0.86188    0.56479   1.00
H1       0.36824    0.87338    0.76401   1.00
H1       0.38226    0.96836    0.56599   1.00
H1       0.46128    0.95652    0.76521   1.00
C5       0.47091    0.96494    0.68728   1.00
H1       0.38220    0.96828    0.63809   1.00
H2       0.49520    0.97192    0.70756   1.00
H2       0.48432    0.94924    0.66231   1.00
H2       0.47533    0.83733    0.62244   1.00
H2       0.47147    0.86219    0.66769   1.00
N1       0.45268    1.00105    0.67357   1.00
C6       0.43775    1.02944    0.69573   1.00
C6       0.44880    1.01244    0.63654   1.00
C6       0.42367    1.05910    0.67259   1.00
C6       0.43070    1.04830    0.63495   1.00
H3       0.43675    1.02862    0.72697   1.00
H3       0.45824    0.99559    0.61200   1.00
H3       0.40985    1.08566    0.68213   1.00
H3       0.42342    1.06472    0.60925   1.00
N1       0.42621    0.82173    0.65643   1.00
C6       0.41920    0.81195    0.69346   1.00
C6       0.40371    0.79887    0.63427   1.00
C6       0.39152    0.78285    0.69505   1.00
C6       0.38166    0.77454    0.65741   1.00
H3       0.43311    0.82535    0.71800   1.00
H3       0.40299    0.79994    0.60303   1.00
H3       0.37980    0.76923    0.72075   1.00
H3       0.36076    0.75311    0.64787   1.00
C4       0.41480    1.14415    0.41497   1.00
C4       0.41520    1.18585    0.41503   1.00
C3a      0.38435    1.12246    0.43337   1.00
C3       0.39194    1.20732    0.38870   1.00
C3       0.44467    1.12268    0.39648   1.00
C3a      0.43903    1.20754    0.44144   1.00
C2       0.41501    1.05988    0.41492   1.00
C2       0.41502    1.27012    0.41492   1.00
C3       0.38498    1.08095    0.43311   1.00
C3       0.39180    1.24863    0.38876   1.00
C3       0.44479    1.08137    0.39658   1.00
C3       0.43850    1.24905    0.44101   1.00
C5       0.35104    1.14272    0.45409   1.00
H1       0.37346    1.19191    0.36821   1.00
H1       0.36188    1.06479    0.44731   1.00
H1       0.37338    1.26401    0.36824   1.00
H1       0.46836    1.06599    0.38226   1.00
H1       0.45652    1.26521    0.46128   1.00
C5       0.46494    1.18728    0.47091   1.00
H1       0.46828    1.13809    0.38220   1.00
H2       0.47192    1.20756    0.49520   1.00
H2       0.44924    1.16231    0.48432   1.00
H2       0.33733    1.12244    0.47533   1.00
H2       0.36219    1.16769    0.47147   1.00
N1       0.50105    1.17357    0.45268   1.00
C6       0.52944    1.19573    0.43775   1.00
C6       0.51244    1.13654    0.44880   1.00
C6       0.55910    1.17259    0.42367   1.00
C6       0.54830    1.13495    0.43070   1.00
H3       0.52862    1.22697    0.43675   1.00
H3       0.49559    1.11200    0.45824   1.00
H3       0.58566    1.18213    0.40985   1.00
H3       0.56472    1.10925    0.42342   1.00
N1       0.32173    1.15643    0.42621   1.00
C6       0.31195    1.19346    0.41920   1.00
C6       0.29887    1.13427    0.40371   1.00
C6       0.28285    1.19505    0.39152   1.00
C6       0.27454    1.15741    0.38166   1.00
H3       0.32535    1.21800    0.43311   1.00
H3       0.29994    1.10303    0.40299   1.00
H3       0.26923    1.22075    0.37980   1.00
H3       0.25311    1.14787    0.36076   1.00
C4       0.18585    0.91497    0.41520   1.00
C4       0.14415    0.91503    0.41480   1.00
C3a      0.20754    0.93337    0.44565   1.00
C3       0.12268    0.88870    0.43806   1.00
C3       0.20732    0.89648    0.38533   1.00
C3a      0.12246    0.94144    0.39097   1.00
C2       0.27012    0.91492    0.41499   1.00
C2       0.05988    0.91492    0.41498   1.00
C3       0.24905    0.93311    0.44502   1.00
C3       0.08137    0.88876    0.43820   1.00
C3       0.24863    0.89658    0.38521   1.00
C3       0.08095    0.94101    0.39150   1.00
C5       0.18728    0.95409    0.47896   1.00
H1       0.13809    0.86821    0.45654   1.00
H1       0.26521    0.94731    0.46812   1.00
H1       0.06599    0.86824    0.45662   1.00
H1       0.26401    0.88226    0.36164   1.00
H1       0.06479    0.96128    0.37348   1.00
C5       0.14272    0.97091    0.36506   1.00
H1       0.19191    0.88220    0.36172   1.00
H2       0.12244    0.99520    0.35808   1.00
H2       0.16769    0.98432    0.38076   1.00
H2       0.20756    0.97533    0.49267   1.00
H2       0.16231    0.97147    0.46781   1.00
N1       0.15643    0.95268    0.32895   1.00
C6       0.13427    0.93775    0.30056   1.00
C6       0.19346    0.94880    0.31756   1.00
C6       0.15741    0.92367    0.27090   1.00
C6       0.19505    0.93070    0.28170   1.00
H3       0.10303    0.93675    0.30138   1.00
H3       0.21800    0.95824    0.33441   1.00
H3       0.14787    0.90985    0.24434   1.00
H3       0.22075    0.92342    0.26528   1.00
N1       0.17357    0.92621    0.50827   1.00
C6       0.13654    0.91920    0.51805   1.00
C6       0.19573    0.90371    0.53113   1.00
C6       0.13495    0.89152    0.54715   1.00
C6       0.17259    0.88166    0.55546   1.00
H3       0.11200    0.93311    0.50465   1.00
H3       0.22697    0.90299    0.53006   1.00
H3       0.10925    0.87980    0.56077   1.00
H3       0.18213    0.86076    0.57689   1.00
C4       0.64415    0.91497    0.41480   1.00
C4       0.68585    0.91503    0.41520   1.00
C3a      0.62246    0.93337    0.38435   1.00
C3       0.70732    0.88870    0.39194   1.00
C3       0.62268    0.89648    0.44467   1.00
C3a      0.70754    0.94144    0.43903   1.00
C2       0.55988    0.91492    0.41501   1.00
C2       0.77012    0.91492    0.41502   1.00
C3       0.58095    0.93311    0.38498   1.00
C3       0.74863    0.88876    0.39180   1.00
C3       0.58137    0.89658    0.44479   1.00
C3       0.74905    0.94101    0.43850   1.00
C5       0.64272    0.95409    0.35104   1.00
H1       0.69191    0.86821    0.37346   1.00
H1       0.56479    0.94731    0.36188   1.00
H1       0.76401    0.86824    0.37338   1.00
H1       0.56599    0.88226    0.46836   1.00
H1       0.76521    0.96128    0.45652   1.00
C5       0.68728    0.97091    0.46494   1.00
H1       0.63809    0.88220    0.46828   1.00
H2       0.70756    0.99520    0.47192   1.00
H2       0.66231    0.98432    0.44924   1.00
H2       0.62244    0.97533    0.33733   1.00
H2       0.66769    0.97147    0.36219   1.00
N1       0.67357    0.95268    0.50105   1.00
C6       0.69573    0.93775    0.52944   1.00
C6       0.63654    0.94880    0.51244   1.00
C6       0.67259    0.92367    0.55910   1.00
C6       0.63495    0.93070    0.54830   1.00
H3       0.72697    0.93675    0.52862   1.00
H3       0.61200    0.95824    0.49559   1.00
H3       0.68213    0.90985    0.58566   1.00
H3       0.60925    0.92342    0.56472   1.00
N1       0.65643    0.92621    0.32173   1.00
C6       0.69346    0.91920    0.31195   1.00
C6       0.63427    0.90371    0.29887   1.00
C6       0.69505    0.89152    0.28285   1.00
C6       0.65741    0.88166    0.27454   1.00
H3       0.71800    0.93311    0.32535   1.00
H3       0.60303    0.90299    0.29994   1.00
H3       0.72075    0.87980    0.26923   1.00
H3       0.64787    0.86076    0.25311   1.00
C4       0.41520    0.68585    0.41497   1.00
C4       0.41480    0.64415    0.41503   1.00
C3a      0.44565    0.70754    0.43337   1.00
C3       0.43806    0.62268    0.38870   1.00
C3       0.38533    0.70732    0.39648   1.00
C3a      0.39097    0.62246    0.44144   1.00
C2       0.41499    0.77012    0.41492   1.00
C2       0.41498    0.55988    0.41492   1.00
C3       0.44502    0.74905    0.43311   1.00
C3       0.43820    0.58137    0.38876   1.00
C3       0.38521    0.74863    0.39658   1.00
C3       0.39150    0.58095    0.44101   1.00
C5       0.47896    0.68728    0.45409   1.00
H1       0.45654    0.63809    0.36821   1.00
H1       0.46812    0.76521    0.44731   1.00
H1       0.45662    0.56599    0.36824   1.00
H1       0.36164    0.76401    0.38226   1.00
H1       0.37348    0.56479    0.46128   1.00
C5       0.36506    0.64272    0.47091   1.00
H1       0.36172    0.69191    0.38220   1.00
H2       0.35808    0.62244    0.49520   1.00
H2       0.38076    0.66769    0.48432   1.00
H2       0.49267    0.70756    0.47533   1.00
H2       0.46781    0.66231    0.47147   1.00
N1       0.32895    0.65643    0.45268   1.00
C6       0.30056    0.63427    0.43775   1.00
C6       0.31756    0.69346    0.44880   1.00
C6       0.27090    0.65741    0.42367   1.00
C6       0.28170    0.69505    0.43070   1.00
H3       0.30138    0.60303    0.43675   1.00
H3       0.33441    0.71800    0.45824   1.00
H3       0.24434    0.64787    0.40985   1.00
H3       0.26528    0.72075    0.42342   1.00
N1       0.50827    0.67357    0.42621   1.00
C6       0.51805    0.63654    0.41920   1.00
C6       0.53113    0.69573    0.40371   1.00
C6       0.54715    0.63495    0.39152   1.00
C6       0.55546    0.67259    0.38166   1.00
H3       0.50465    0.61200    0.43311   1.00
H3       0.53006    0.72697    0.40299   1.00
H3       0.56077    0.60925    0.37980   1.00
H3       0.57689    0.68213    0.36076   1.00
C4       0.41497    0.91520    0.18585   1.00
C4       0.41503    0.91480    0.14415   1.00
C3a      0.43337    0.94565    0.20754   1.00
C3       0.38870    0.93806    0.12268   1.00
C3       0.39648    0.88533    0.20732   1.00
C3a      0.44144    0.89097    0.12246   1.00
C2       0.41492    0.91499    0.27012   1.00
C2       0.41492    0.91498    0.05988   1.00
C3       0.43311    0.94502    0.24905   1.00
C3       0.38876    0.93820    0.08137   1.00
C3       0.39658    0.88521    0.24863   1.00
C3       0.44101    0.89150    0.08095   1.00
C5       0.45409    0.97896    0.18728   1.00
H1       0.36821    0.95654    0.13809   1.00
H1       0.44731    0.96812    0.26521   1.00
H1       0.36824    0.95662    0.06599   1.00
H1       0.38226    0.86164    0.26401   1.00
H1       0.46128    0.87348    0.06479   1.00
C5       0.47091    0.86506    0.14272   1.00
H1       0.38220    0.86172    0.19191   1.00
H2       0.49520    0.85808    0.12244   1.00
H2       0.48432    0.88076    0.16769   1.00
H2       0.47533    0.99267    0.20756   1.00
H2       0.47147    0.96781    0.16231   1.00
N1       0.45268    0.82895    0.15643   1.00
C6       0.43775    0.80056    0.13427   1.00
C6       0.44880    0.81756    0.19346   1.00
C6       0.42367    0.77090    0.15741   1.00
C6       0.43070    0.78170    0.19505   1.00
H3       0.43675    0.80138    0.10303   1.00
H3       0.45824    0.83441    0.21800   1.00
H3       0.40985    0.74434    0.14787   1.00
H3       0.42342    0.76528    0.22075   1.00
N1       0.42621    1.00827    0.17357   1.00
C6       0.41920    1.01805    0.13654   1.00
C6       0.40371    1.03113    0.19573   1.00
C6       0.39152    1.04715    0.13495   1.00
C6       0.38166    1.05546    0.17259   1.00
H3       0.43311    1.00465    0.11200   1.00
H3       0.40299    1.03006    0.22697   1.00
H3       0.37980    1.06077    0.10925   1.00
H3       0.36076    1.07689    0.18213   1.00
C4       0.91497    0.41480    0.64415   1.00
C4       0.91503    0.41520    0.68585   1.00
C3a      0.93337    0.38435    0.62246   1.00
C3       0.88870    0.39194    0.70732   1.00
C3       0.89648    0.44467    0.62268   1.00
C3a      0.94144    0.43903    0.70754   1.00
C2       0.91492    0.41501    0.55988   1.00
C2       0.91492    0.41502    0.77012   1.00
C3       0.93311    0.38498    0.58095   1.00
C3       0.88876    0.39180    0.74863   1.00
C3       0.89658    0.44479    0.58137   1.00
C3       0.94101    0.43850    0.74905   1.00
C5       0.95409    0.35104    0.64272   1.00
H1       0.86821    0.37346    0.69191   1.00
H1       0.94731    0.36188    0.56479   1.00
H1       0.86824    0.37338    0.76401   1.00
H1       0.88226    0.46836    0.56599   1.00
H1       0.96128    0.45652    0.76521   1.00
C5       0.97091    0.46494    0.68728   1.00
H1       0.88220    0.46828    0.63809   1.00
H2       0.99520    0.47192    0.70756   1.00
H2       0.98432    0.44924    0.66231   1.00
H2       0.97533    0.33733    0.62244   1.00
H2       0.97147    0.36219    0.66769   1.00
N1       0.95268    0.50105    0.67357   1.00
C6       0.93775    0.52944    0.69573   1.00
C6       0.94880    0.51244    0.63654   1.00
C6       0.92367    0.55910    0.67259   1.00
C6       0.93070    0.54830    0.63495   1.00
H3       0.93675    0.52862    0.72697   1.00
H3       0.95824    0.49559    0.61200   1.00
H3       0.90985    0.58566    0.68213   1.00
H3       0.92342    0.56472    0.60925   1.00
N1       0.92621    0.32173    0.65643   1.00
C6       0.91920    0.31195    0.69346   1.00
C6       0.90371    0.29887    0.63427   1.00
C6       0.89152    0.28285    0.69505   1.00
C6       0.88166    0.27454    0.65741   1.00
H3       0.93311    0.32535    0.71800   1.00
H3       0.90299    0.29994    0.60303   1.00
H3       0.87980    0.26923    0.72075   1.00
H3       0.86076    0.25311    0.64787   1.00
C4       0.91480    0.64415    0.41497   1.00
C4       0.91520    0.68585    0.41503   1.00
C3a      0.88435    0.62246    0.43337   1.00
C3       0.89194    0.70732    0.38870   1.00
C3       0.94467    0.62268    0.39648   1.00
C3a      0.93903    0.70754    0.44144   1.00
C2       0.91501    0.55988    0.41492   1.00
C2       0.91502    0.77012    0.41492   1.00
C3       0.88498    0.58095    0.43311   1.00
C3       0.89180    0.74863    0.38876   1.00
C3       0.94479    0.58137    0.39658   1.00
C3       0.93850    0.74905    0.44101   1.00
C5       0.85104    0.64272    0.45409   1.00
H1       0.87346    0.69191    0.36821   1.00
H1       0.86188    0.56479    0.44731   1.00
H1       0.87338    0.76401    0.36824   1.00
H1       0.96836    0.56599    0.38226   1.00
H1       0.95652    0.76521    0.46128   1.00
C5       0.96494    0.68728    0.47091   1.00
H1       0.96828    0.63809    0.38220   1.00
H2       0.97192    0.70756    0.49520   1.00
H2       0.94924    0.66231    0.48432   1.00
H2       0.83733    0.62244    0.47533   1.00
H2       0.86219    0.66769    0.47147   1.00
N1       1.00105    0.67357    0.45268   1.00
C6       1.02944    0.69573    0.43775   1.00
C6       1.01244    0.63654    0.44880   1.00
C6       1.05910    0.67259    0.42367   1.00
C6       1.04830    0.63495    0.43070   1.00
H3       1.02862    0.72697    0.43675   1.00
H3       0.99559    0.61200    0.45824   1.00
H3       1.08566    0.68213    0.40985   1.00
H3       1.06472    0.60925    0.42342   1.00
N1       0.82173    0.65643    0.42621   1.00
C6       0.81195    0.69346    0.41920   1.00
C6       0.79887    0.63427    0.40371   1.00
C6       0.78285    0.69505    0.39152   1.00
C6       0.77454    0.65741    0.38166   1.00
H3       0.82535    0.71800    0.43311   1.00
H3       0.79994    0.60303    0.40299   1.00
H3       0.76923    0.72075    0.37980   1.00
H3       0.75311    0.64787    0.36076   1.00
C4       0.68585    0.41497    0.41520   1.00
C4       0.64415    0.41503    0.41480   1.00
C3a      0.70754    0.43337    0.44565   1.00
C3       0.62268    0.38870    0.43806   1.00
C3       0.70732    0.39648    0.38533   1.00
C3a      0.62246    0.44144    0.39097   1.00
C2       0.77012    0.41492    0.41499   1.00
C2       0.55988    0.41492    0.41498   1.00
C3       0.74905    0.43311    0.44502   1.00
C3       0.58137    0.38876    0.43820   1.00
C3       0.74863    0.39658    0.38521   1.00
C3       0.58095    0.44101    0.39150   1.00
C5       0.68728    0.45409    0.47896   1.00
H1       0.63809    0.36821    0.45654   1.00
H1       0.76521    0.44731    0.46812   1.00
H1       0.56599    0.36824    0.45662   1.00
H1       0.76401    0.38226    0.36164   1.00
H1       0.56479    0.46128    0.37348   1.00
C5       0.64272    0.47091    0.36506   1.00
H1       0.69191    0.38220    0.36172   1.00
H2       0.62244    0.49520    0.35808   1.00
H2       0.66769    0.48432    0.38076   1.00
H2       0.70756    0.47533    0.49267   1.00
H2       0.66231    0.47147    0.46781   1.00
N1       0.65643    0.45268    0.32895   1.00
C6       0.63427    0.43775    0.30056   1.00
C6       0.69346    0.44880    0.31756   1.00
C6       0.65741    0.42367    0.27090   1.00
C6       0.69505    0.43070    0.28170   1.00
H3       0.60303    0.43675    0.30138   1.00
H3       0.71800    0.45824    0.33441   1.00
H3       0.64787    0.40985    0.24434   1.00
H3       0.72075    0.42342    0.26528   1.00
N1       0.67357    0.42621    0.50827   1.00
C6       0.63654    0.41920    0.51805   1.00
C6       0.69573    0.40371    0.53113   1.00
C6       0.63495    0.39152    0.54715   1.00
C6       0.67259    0.38166    0.55546   1.00
H3       0.61200    0.43311    0.50465   1.00
H3       0.72697    0.40299    0.53006   1.00
H3       0.60925    0.37980    0.56077   1.00
H3       0.68213    0.36076    0.57689   1.00
C4       1.14415    0.41497    0.41480   1.00
C4       1.18585    0.41503    0.41520   1.00
C3a      1.12246    0.43337    0.38435   1.00
C3       1.20732    0.38870    0.39194   1.00
C3       1.12268    0.39648    0.44467   1.00
C3a      1.20754    0.44144    0.43903   1.00
C2       1.05988    0.41492    0.41501   1.00
C2       1.27012    0.41492    0.41502   1.00
C3       1.08095    0.43311    0.38498   1.00
C3       1.24863    0.38876    0.39180   1.00
C3       1.08137    0.39658    0.44479   1.00
C3       1.24905    0.44101    0.43850   1.00
C5       1.14272    0.45409    0.35104   1.00
H1       1.19191    0.36821    0.37346   1.00
H1       1.06479    0.44731    0.36188   1.00
H1       1.26401    0.36824    0.37338   1.00
H1       1.06599    0.38226    0.46836   1.00
H1       1.26521    0.46128    0.45652   1.00
C5       1.18728    0.47091    0.46494   1.00
H1       1.13809    0.38220    0.46828   1.00
H2       1.20756    0.49520    0.47192   1.00
H2       1.16231    0.48432    0.44924   1.00
H2       1.12244    0.47533    0.33733   1.00
H2       1.16769    0.47147    0.36219   1.00
N1       1.17357    0.45268    0.50105   1.00
C6       1.19573    0.43775    0.52944   1.00
C6       1.13654    0.44880    0.51244   1.00
C6       1.17259    0.42367    0.55910   1.00
C6       1.13495    0.43070    0.54830   1.00
H3       1.22697    0.43675    0.52862   1.00
H3       1.11200    0.45824    0.49559   1.00
H3       1.18213    0.40985    0.58566   1.00
H3       1.10925    0.42342    0.56472   1.00
N1       1.15643    0.42621    0.32173   1.00
C6       1.19346    0.41920    0.31195   1.00
C6       1.13427    0.40371    0.29887   1.00
C6       1.19505    0.39152    0.28285   1.00
C6       1.15741    0.38166    0.27454   1.00
H3       1.21800    0.43311    0.32535   1.00
H3       1.10303    0.40299    0.29994   1.00
H3       1.22075    0.37980    0.26923   1.00
H3       1.14787    0.36076    0.25311   1.00
C4       0.91520    0.18585    0.41497   1.00
C4       0.91480    0.14415    0.41503   1.00
C3a      0.94565    0.20754    0.43337   1.00
C3       0.93806    0.12268    0.38870   1.00
C3       0.88533    0.20732    0.39648   1.00
C3a      0.89097    0.12246    0.44144   1.00
C2       0.91499    0.27012    0.41492   1.00
C2       0.91498    0.05988    0.41492   1.00
C3       0.94502    0.24905    0.43311   1.00
C3       0.93820    0.08137    0.38876   1.00
C3       0.88521    0.24863    0.39658   1.00
C3       0.89150    0.08095    0.44101   1.00
C5       0.97896    0.18728    0.45409   1.00
H1       0.95654    0.13809    0.36821   1.00
H1       0.96812    0.26521    0.44731   1.00
H1       0.95662    0.06599    0.36824   1.00
H1       0.86164    0.26401    0.38226   1.00
H1       0.87348    0.06479    0.46128   1.00
C5       0.86506    0.14272    0.47091   1.00
H1       0.86172    0.19191    0.38220   1.00
H2       0.85808    0.12244    0.49520   1.00
H2       0.88076    0.16769    0.48432   1.00
H2       0.99267    0.20756    0.47533   1.00
H2       0.96781    0.16231    0.47147   1.00
N1       0.82895    0.15643    0.45268   1.00
C6       0.80056    0.13427    0.43775   1.00
C6       0.81756    0.19346    0.44880   1.00
C6       0.77090    0.15741    0.42367   1.00
C6       0.78170    0.19505    0.43070   1.00
H3       0.80138    0.10303    0.43675   1.00
H3       0.83441    0.21800    0.45824   1.00
H3       0.74434    0.14787    0.40985   1.00
H3       0.76528    0.22075    0.42342   1.00
N1       1.00827    0.17357    0.42621   1.00
C6       1.01805    0.13654    0.41920   1.00
C6       1.03113    0.19573    0.40371   1.00
C6       1.04715    0.13495    0.39152   1.00
C6       1.05546    0.17259    0.38166   1.00
H3       1.00465    0.11200    0.43311   1.00
H3       1.03006    0.22697    0.40299   1.00
H3       1.06077    0.10925    0.37980   1.00
H3       1.07689    0.18213    0.36076   1.00
C4       0.91497    0.41520    0.18585   1.00
C4       0.91503    0.41480    0.14415   1.00
C3a      0.93337    0.44565    0.20754   1.00
C3       0.88870    0.43806    0.12268   1.00
C3       0.89648    0.38533    0.20732   1.00
C3a      0.94144    0.39097    0.12246   1.00
C2       0.91492    0.41499    0.27012   1.00
C2       0.91492    0.41498    0.05988   1.00
C3       0.93311    0.44502    0.24905   1.00
C3       0.88876    0.43820    0.08137   1.00
C3       0.89658    0.38521    0.24863   1.00
C3       0.94101    0.39150    0.08095   1.00
C5       0.95409    0.47896    0.18728   1.00
H1       0.86821    0.45654    0.13809   1.00
H1       0.94731    0.46812    0.26521   1.00
H1       0.86824    0.45662    0.06599   1.00
H1       0.88226    0.36164    0.26401   1.00
H1       0.96128    0.37348    0.06479   1.00
C5       0.97091    0.36506    0.14272   1.00
H1       0.88220    0.36172    0.19191   1.00
H2       0.99520    0.35808    0.12244   1.00
H2       0.98432    0.38076    0.16769   1.00
H2       0.97533    0.49267    0.20756   1.00
H2       0.97147    0.46781    0.16231   1.00
N1       0.95268    0.32895    0.15643   1.00
C6       0.93775    0.30056    0.13427   1.00
C6       0.94880    0.31756    0.19346   1.00
C6       0.92367    0.27090    0.15741   1.00
C6       0.93070    0.28170    0.19505   1.00
H3       0.93675    0.30138    0.10303   1.00
H3       0.95824    0.33441    0.21800   1.00
H3       0.90985    0.24434    0.14787   1.00
H3       0.92342    0.26528    0.22075   1.00
N1       0.92621    0.50827    0.17357   1.00
C6       0.91920    0.51805    0.13654   1.00
C6       0.90371    0.53113    0.19573   1.00
C6       0.89152    0.54715    0.13495   1.00
C6       0.88166    0.55546    0.17259   1.00
H3       0.93311    0.50465    0.11200   1.00
H3       0.90299    0.53006    0.22697   1.00
H3       0.87980    0.56077    0.10925   1.00
H3       0.86076    0.57689    0.18213   1.00
