data_IRMOF10_SG202_interpen_Ligand7cp_label_k.

_audit_creation_method             'generated by an auxiliary program of Tobunporous'

_symmetry_space_group_name_H-M     'P 1'
_symmetry_Int_Tables_number        1
_symmetry_cell_setting             triclinic

_cell_length_a                    34.2800
_cell_length_b                    34.2800
_cell_length_c                    34.2800
_cell_angle_alpha                 90.0000
_cell_angle_beta                  90.0000
_cell_angle_gamma                 90.0000

loop_
_atom_site_label
_atom_site_fract_x
_atom_site_fract_y
_atom_site_fract_z
_atom_site_occupancy
O1       0.75000    0.75000    0.75000   1.00
Zn1      0.71720    0.78280    0.78280   1.00
Zn1      0.78280    0.71720    0.78280   1.00
Zn1      0.78280    0.78280    0.71720   1.00
Zn1      0.71720    0.71720    0.71720   1.00
O2       0.72650    0.77350    0.83820   1.00
O2       0.72650    0.83820    0.77350   1.00
O2       0.66180    0.77350    0.77350   1.00
O2       0.77350    0.72650    0.83820   1.00
O2       0.83820    0.72650    0.77350   1.00
O2       0.77350    0.66180    0.77350   1.00
O2       0.77350    0.83820    0.72650   1.00
O2       0.83820    0.77350    0.72650   1.00
O2       0.77350    0.77350    0.66180   1.00
O2       0.66180    0.72650    0.72650   1.00
O2       0.72650    0.66180    0.72650   1.00
O2       0.72650    0.72650    0.66180   1.00
C1       0.75000    0.75000    0.85520   1.00
C1       0.75000    0.85520    0.75000   1.00
C1       0.64480    0.75000    0.75000   1.00
C1       0.85520    0.75000    0.75000   1.00
C1       0.75000    0.64480    0.75000   1.00
C1       0.75000    0.75000    0.64480   1.00
O1       0.25000    0.25000    0.75000   1.00
Zn1      0.21720    0.28280    0.78280   1.00
Zn1      0.28280    0.21720    0.78280   1.00
Zn1      0.28280    0.28280    0.71720   1.00
Zn1      0.21720    0.21720    0.71720   1.00
O2       0.22650    0.27350    0.83820   1.00
O2       0.22650    0.33820    0.77350   1.00
O2       0.16180    0.27350    0.77350   1.00
O2       0.27350    0.22650    0.83820   1.00
O2       0.33820    0.22650    0.77350   1.00
O2       0.27350    0.16180    0.77350   1.00
O2       0.27350    0.33820    0.72650   1.00
O2       0.33820    0.27350    0.72650   1.00
O2       0.27350    0.27350    0.66180   1.00
O2       0.16180    0.22650    0.72650   1.00
O2       0.22650    0.16180    0.72650   1.00
O2       0.22650    0.22650    0.66180   1.00
C1       0.25000    0.25000    0.85520   1.00
C1       0.25000    0.35520    0.75000   1.00
C1       0.14480    0.25000    0.75000   1.00
C1       0.35520    0.25000    0.75000   1.00
C1       0.25000    0.14480    0.75000   1.00
C1       0.25000    0.25000    0.64480   1.00
O1       0.25000    0.75000    0.25000   1.00
Zn1      0.21720    0.78280    0.28280   1.00
Zn1      0.28280    0.71720    0.28280   1.00
Zn1      0.28280    0.78280    0.21720   1.00
Zn1      0.21720    0.71720    0.21720   1.00
O2       0.22650    0.77350    0.33820   1.00
O2       0.22650    0.83820    0.27350   1.00
O2       0.16180    0.77350    0.27350   1.00
O2       0.27350    0.72650    0.33820   1.00
O2       0.33820    0.72650    0.27350   1.00
O2       0.27350    0.66180    0.27350   1.00
O2       0.27350    0.83820    0.22650   1.00
O2       0.33820    0.77350    0.22650   1.00
O2       0.27350    0.77350    0.16180   1.00
O2       0.16180    0.72650    0.22650   1.00
O2       0.22650    0.66180    0.22650   1.00
O2       0.22650    0.72650    0.16180   1.00
C1       0.25000    0.75000    0.35520   1.00
C1       0.25000    0.85520    0.25000   1.00
C1       0.14480    0.75000    0.25000   1.00
C1       0.35520    0.75000    0.25000   1.00
C1       0.25000    0.64480    0.25000   1.00
C1       0.25000    0.75000    0.14480   1.00
O1       0.75000    0.25000    0.25000   1.00
Zn1      0.71720    0.28280    0.28280   1.00
Zn1      0.78280    0.21720    0.28280   1.00
Zn1      0.78280    0.28280    0.21720   1.00
Zn1      0.71720    0.21720    0.21720   1.00
O2       0.72650    0.27350    0.33820   1.00
O2       0.72650    0.33820    0.27350   1.00
O2       0.66180    0.27350    0.27350   1.00
O2       0.77350    0.22650    0.33820   1.00
O2       0.83820    0.22650    0.27350   1.00
O2       0.77350    0.16180    0.27350   1.00
O2       0.77350    0.33820    0.22650   1.00
O2       0.83820    0.27350    0.22650   1.00
O2       0.77350    0.27350    0.16180   1.00
O2       0.66180    0.22650    0.22650   1.00
O2       0.72650    0.16180    0.22650   1.00
O2       0.72650    0.22650    0.16180   1.00
C1       0.75000    0.25000    0.35520   1.00
C1       0.75000    0.35520    0.25000   1.00
C1       0.64480    0.25000    0.25000   1.00
C1       0.85520    0.25000    0.25000   1.00
C1       0.75000    0.14480    0.25000   1.00
C1       0.75000    0.25000    0.14480   1.00
O1       0.25000    0.25000    0.25000   1.00
Zn1      0.28280    0.21720    0.21720   1.00
Zn1      0.21720    0.28280    0.21720   1.00
Zn1      0.21720    0.21720    0.28280   1.00
Zn1      0.28280    0.28280    0.28280   1.00
O2       0.27350    0.22650    0.16180   1.00
O2       0.27350    0.16180    0.22650   1.00
O2       0.33820    0.22650    0.22650   1.00
O2       0.22650    0.27350    0.16180   1.00
O2       0.16180    0.27350    0.22650   1.00
O2       0.22650    0.33820    0.22650   1.00
O2       0.22650    0.16180    0.27350   1.00
O2       0.16180    0.22650    0.27350   1.00
O2       0.22650    0.22650    0.33820   1.00
O2       0.33820    0.27350    0.27350   1.00
O2       0.27350    0.33820    0.27350   1.00
O2       0.27350    0.27350    0.33820   1.00
C1       0.25000    0.25000    0.14480   1.00
C1       0.25000    0.14480    0.25000   1.00
C1       0.35520    0.25000    0.25000   1.00
C1       0.14480    0.25000    0.25000   1.00
C1       0.25000    0.35520    0.25000   1.00
C1       0.25000    0.25000    0.35520   1.00
O1       0.75000    0.75000    0.25000   1.00
Zn1      0.78280    0.71720    0.21720   1.00
Zn1      0.71720    0.78280    0.21720   1.00
Zn1      0.71720    0.71720    0.28280   1.00
Zn1      0.78280    0.78280    0.28280   1.00
O2       0.77350    0.72650    0.16180   1.00
O2       0.77350    0.66180    0.22650   1.00
O2       0.83820    0.72650    0.22650   1.00
O2       0.72650    0.77350    0.16180   1.00
O2       0.66180    0.77350    0.22650   1.00
O2       0.72650    0.83820    0.22650   1.00
O2       0.72650    0.66180    0.27350   1.00
O2       0.66180    0.72650    0.27350   1.00
O2       0.72650    0.72650    0.33820   1.00
O2       0.83820    0.77350    0.27350   1.00
O2       0.77350    0.83820    0.27350   1.00
O2       0.77350    0.77350    0.33820   1.00
C1       0.75000    0.75000    0.14480   1.00
C1       0.75000    0.64480    0.25000   1.00
C1       0.85520    0.75000    0.25000   1.00
C1       0.64480    0.75000    0.25000   1.00
C1       0.75000    0.85520    0.25000   1.00
C1       0.75000    0.75000    0.35520   1.00
O1       0.75000    0.25000    0.75000   1.00
Zn1      0.78280    0.21720    0.71720   1.00
Zn1      0.71720    0.28280    0.71720   1.00
Zn1      0.71720    0.21720    0.78280   1.00
Zn1      0.78280    0.28280    0.78280   1.00
O2       0.77350    0.22650    0.66180   1.00
O2       0.77350    0.16180    0.72650   1.00
O2       0.83820    0.22650    0.72650   1.00
O2       0.72650    0.27350    0.66180   1.00
O2       0.66180    0.27350    0.72650   1.00
O2       0.72650    0.33820    0.72650   1.00
O2       0.72650    0.16180    0.77350   1.00
O2       0.66180    0.22650    0.77350   1.00
O2       0.72650    0.22650    0.83820   1.00
O2       0.83820    0.27350    0.77350   1.00
O2       0.77350    0.33820    0.77350   1.00
O2       0.77350    0.27350    0.83820   1.00
C1       0.75000    0.25000    0.64480   1.00
C1       0.75000    0.14480    0.75000   1.00
C1       0.85520    0.25000    0.75000   1.00
C1       0.64480    0.25000    0.75000   1.00
C1       0.75000    0.35520    0.75000   1.00
C1       0.75000    0.25000    0.85520   1.00
O1       0.25000    0.75000    0.75000   1.00
Zn1      0.28280    0.71720    0.71720   1.00
Zn1      0.21720    0.78280    0.71720   1.00
Zn1      0.21720    0.71720    0.78280   1.00
Zn1      0.28280    0.78280    0.78280   1.00
O2       0.27350    0.72650    0.66180   1.00
O2       0.27350    0.66180    0.72650   1.00
O2       0.33820    0.72650    0.72650   1.00
O2       0.22650    0.77350    0.66180   1.00
O2       0.16180    0.77350    0.72650   1.00
O2       0.22650    0.83820    0.72650   1.00
O2       0.22650    0.66180    0.77350   1.00
O2       0.16180    0.72650    0.77350   1.00
O2       0.22650    0.72650    0.83820   1.00
O2       0.33820    0.77350    0.77350   1.00
O2       0.27350    0.83820    0.77350   1.00
O2       0.27350    0.77350    0.83820   1.00
C1       0.25000    0.75000    0.64480   1.00
C1       0.25000    0.64480    0.75000   1.00
C1       0.35520    0.75000    0.75000   1.00
C1       0.14480    0.75000    0.75000   1.00
C1       0.25000    0.85520    0.75000   1.00
C1       0.25000    0.75000    0.85520   1.00
O1       0.91500    0.91500    0.91500   1.00
Zn1      0.88220    0.94780    0.94780   1.00
Zn1      0.94780    0.88220    0.94780   1.00
Zn1      0.94780    0.94780    0.88220   1.00
Zn1      0.88220    0.88220    0.88220   1.00
O2       0.89150    0.93850    1.00320   1.00
O2       0.89150    1.00320    0.93850   1.00
O2       0.82680    0.93850    0.93850   1.00
O2       0.93850    0.89150    1.00320   1.00
O2       1.00320    0.89150    0.93850   1.00
O2       0.93850    0.82680    0.93850   1.00
O2       0.93850    1.00320    0.89150   1.00
O2       1.00320    0.93850    0.89150   1.00
O2       0.93850    0.93850    0.82680   1.00
O2       0.82680    0.89150    0.89150   1.00
O2       0.89150    0.82680    0.89150   1.00
O2       0.89150    0.89150    0.82680   1.00
C1       0.91500    0.91500    1.02020   1.00
C1       0.91500    1.02020    0.91500   1.00
C1       0.80980    0.91500    0.91500   1.00
C1       1.02020    0.91500    0.91500   1.00
C1       0.91500    0.80980    0.91500   1.00
C1       0.91500    0.91500    0.80980   1.00
O1       0.41500    0.41500    0.91500   1.00
Zn1      0.38220    0.44780    0.94780   1.00
Zn1      0.44780    0.38220    0.94780   1.00
Zn1      0.44780    0.44780    0.88220   1.00
Zn1      0.38220    0.38220    0.88220   1.00
O2       0.39150    0.43850    1.00320   1.00
O2       0.39150    0.50320    0.93850   1.00
O2       0.32680    0.43850    0.93850   1.00
O2       0.43850    0.39150    1.00320   1.00
O2       0.50320    0.39150    0.93850   1.00
O2       0.43850    0.32680    0.93850   1.00
O2       0.43850    0.50320    0.89150   1.00
O2       0.50320    0.43850    0.89150   1.00
O2       0.43850    0.43850    0.82680   1.00
O2       0.32680    0.39150    0.89150   1.00
O2       0.39150    0.32680    0.89150   1.00
O2       0.39150    0.39150    0.82680   1.00
C1       0.41500    0.41500    1.02020   1.00
C1       0.41500    0.52020    0.91500   1.00
C1       0.30980    0.41500    0.91500   1.00
C1       0.52020    0.41500    0.91500   1.00
C1       0.41500    0.30980    0.91500   1.00
C1       0.41500    0.41500    0.80980   1.00
O1       0.41500    0.91500    0.41500   1.00
Zn1      0.38220    0.94780    0.44780   1.00
Zn1      0.44780    0.88220    0.44780   1.00
Zn1      0.44780    0.94780    0.38220   1.00
Zn1      0.38220    0.88220    0.38220   1.00
O2       0.39150    0.93850    0.50320   1.00
O2       0.39150    1.00320    0.43850   1.00
O2       0.32680    0.93850    0.43850   1.00
O2       0.43850    0.89150    0.50320   1.00
O2       0.50320    0.89150    0.43850   1.00
O2       0.43850    0.82680    0.43850   1.00
O2       0.43850    1.00320    0.39150   1.00
O2       0.50320    0.93850    0.39150   1.00
O2       0.43850    0.93850    0.32680   1.00
O2       0.32680    0.89150    0.39150   1.00
O2       0.39150    0.82680    0.39150   1.00
O2       0.39150    0.89150    0.32680   1.00
C1       0.41500    0.91500    0.52020   1.00
C1       0.41500    1.02020    0.41500   1.00
C1       0.30980    0.91500    0.41500   1.00
C1       0.52020    0.91500    0.41500   1.00
C1       0.41500    0.80980    0.41500   1.00
C1       0.41500    0.91500    0.30980   1.00
O1       0.91500    0.41500    0.41500   1.00
Zn1      0.88220    0.44780    0.44780   1.00
Zn1      0.94780    0.38220    0.44780   1.00
Zn1      0.94780    0.44780    0.38220   1.00
Zn1      0.88220    0.38220    0.38220   1.00
O2       0.89150    0.43850    0.50320   1.00
O2       0.89150    0.50320    0.43850   1.00
O2       0.82680    0.43850    0.43850   1.00
O2       0.93850    0.39150    0.50320   1.00
O2       1.00320    0.39150    0.43850   1.00
O2       0.93850    0.32680    0.43850   1.00
O2       0.93850    0.50320    0.39150   1.00
O2       1.00320    0.43850    0.39150   1.00
O2       0.93850    0.43850    0.32680   1.00
O2       0.82680    0.39150    0.39150   1.00
O2       0.89150    0.32680    0.39150   1.00
O2       0.89150    0.39150    0.32680   1.00
C1       0.91500    0.41500    0.52020   1.00
C1       0.91500    0.52020    0.41500   1.00
C1       0.80980    0.41500    0.41500   1.00
C1       1.02020    0.41500    0.41500   1.00
C1       0.91500    0.30980    0.41500   1.00
C1       0.91500    0.41500    0.30980   1.00
O1       0.41500    0.41500    0.41500   1.00
Zn1      0.44780    0.38220    0.38220   1.00
Zn1      0.38220    0.44780    0.38220   1.00
Zn1      0.38220    0.38220    0.44780   1.00
Zn1      0.44780    0.44780    0.44780   1.00
O2       0.43850    0.39150    0.32680   1.00
O2       0.43850    0.32680    0.39150   1.00
O2       0.50320    0.39150    0.39150   1.00
O2       0.39150    0.43850    0.32680   1.00
O2       0.32680    0.43850    0.39150   1.00
O2       0.39150    0.50320    0.39150   1.00
O2       0.39150    0.32680    0.43850   1.00
O2       0.32680    0.39150    0.43850   1.00
O2       0.39150    0.39150    0.50320   1.00
O2       0.50320    0.43850    0.43850   1.00
O2       0.43850    0.50320    0.43850   1.00
O2       0.43850    0.43850    0.50320   1.00
C1       0.41500    0.41500    0.30980   1.00
C1       0.41500    0.30980    0.41500   1.00
C1       0.52020    0.41500    0.41500   1.00
C1       0.30980    0.41500    0.41500   1.00
C1       0.41500    0.52020    0.41500   1.00
C1       0.41500    0.41500    0.52020   1.00
O1       0.91500    0.91500    0.41500   1.00
Zn1      0.94780    0.88220    0.38220   1.00
Zn1      0.88220    0.94780    0.38220   1.00
Zn1      0.88220    0.88220    0.44780   1.00
Zn1      0.94780    0.94780    0.44780   1.00
O2       0.93850    0.89150    0.32680   1.00
O2       0.93850    0.82680    0.39150   1.00
O2       1.00320    0.89150    0.39150   1.00
O2       0.89150    0.93850    0.32680   1.00
O2       0.82680    0.93850    0.39150   1.00
O2       0.89150    1.00320    0.39150   1.00
O2       0.89150    0.82680    0.43850   1.00
O2       0.82680    0.89150    0.43850   1.00
O2       0.89150    0.89150    0.50320   1.00
O2       1.00320    0.93850    0.43850   1.00
O2       0.93850    1.00320    0.43850   1.00
O2       0.93850    0.93850    0.50320   1.00
C1       0.91500    0.91500    0.30980   1.00
C1       0.91500    0.80980    0.41500   1.00
C1       1.02020    0.91500    0.41500   1.00
C1       0.80980    0.91500    0.41500   1.00
C1       0.91500    1.02020    0.41500   1.00
C1       0.91500    0.91500    0.52020   1.00
O1       0.91500    0.41500    0.91500   1.00
Zn1      0.94780    0.38220    0.88220   1.00
Zn1      0.88220    0.44780    0.88220   1.00
Zn1      0.88220    0.38220    0.94780   1.00
Zn1      0.94780    0.44780    0.94780   1.00
O2       0.93850    0.39150    0.82680   1.00
O2       0.93850    0.32680    0.89150   1.00
O2       1.00320    0.39150    0.89150   1.00
O2       0.89150    0.43850    0.82680   1.00
O2       0.82680    0.43850    0.89150   1.00
O2       0.89150    0.50320    0.89150   1.00
O2       0.89150    0.32680    0.93850   1.00
O2       0.82680    0.39150    0.93850   1.00
O2       0.89150    0.39150    1.00320   1.00
O2       1.00320    0.43850    0.93850   1.00
O2       0.93850    0.50320    0.93850   1.00
O2       0.93850    0.43850    1.00320   1.00
C1       0.91500    0.41500    0.80980   1.00
C1       0.91500    0.30980    0.91500   1.00
C1       1.02020    0.41500    0.91500   1.00
C1       0.80980    0.41500    0.91500   1.00
C1       0.91500    0.52020    0.91500   1.00
C1       0.91500    0.41500    1.02020   1.00
O1       0.41500    0.91500    0.91500   1.00
Zn1      0.44780    0.88220    0.88220   1.00
Zn1      0.38220    0.94780    0.88220   1.00
Zn1      0.38220    0.88220    0.94780   1.00
Zn1      0.44780    0.94780    0.94780   1.00
O2       0.43850    0.89150    0.82680   1.00
O2       0.43850    0.82680    0.89150   1.00
O2       0.50320    0.89150    0.89150   1.00
O2       0.39150    0.93850    0.82680   1.00
O2       0.32680    0.93850    0.89150   1.00
O2       0.39150    1.00320    0.89150   1.00
O2       0.39150    0.82680    0.93850   1.00
O2       0.32680    0.89150    0.93850   1.00
O2       0.39150    0.89150    1.00320   1.00
O2       0.50320    0.93850    0.93850   1.00
O2       0.43850    1.00320    0.93850   1.00
O2       0.43850    0.93850    1.00320   1.00
C1       0.41500    0.91500    0.80980   1.00
C1       0.41500    0.80980    0.91500   1.00
C1       0.52020    0.91500    0.91500   1.00
C1       0.30980    0.91500    0.91500   1.00
C1       0.41500    1.02020    0.91500   1.00
C1       0.41500    0.91500    1.02020   1.00
C5       0.86712    0.70145    1.13218   1.00
H2       0.86825    0.73000    1.14745   1.00
H2       0.89157    0.70182    1.11090   1.00
C5       0.87276    0.66828    1.16194   1.00
C5       0.91631    0.66239    1.17123   1.00
H2       0.86060    0.64056    1.15015   1.00
O3       0.73445    0.68091    0.98000   1.00
C4       0.74986    0.75040    1.02100   1.00
C3c      0.78408    0.74340    1.04243   1.00
H1       0.81119    0.73796    1.02725   1.00
C3d      0.71496    0.75797    1.04135   1.00
C3       0.78385    0.74272    1.08354   1.00
O2       0.81919    0.74044    1.10248   1.00
C3       0.71447    0.75658    1.08227   1.00
H1       0.68674    0.76119    1.09657   1.00
C2       0.74872    0.74912    1.10439   1.00
C5       0.69430    0.67175    0.97879   1.00
H2       0.68357    0.66749    0.94838   1.00
H2       0.67650    0.69523    0.99266   1.00
C5       0.68844    0.63383    1.00129   1.00
H2       0.70017    0.63774    1.03137   1.00
H2       0.70605    0.61052    0.98698   1.00
C5       0.64502    0.62238    1.00262   1.00
H2       0.63305    0.61869    0.97268   1.00
H2       0.62762    0.64500    1.01811   1.00
C5       0.64005    0.58343    1.02445   1.00
C5       0.67479    0.80154    1.01105   1.00
C5       0.82816    0.70102    1.11070   1.00
H2       0.69820    0.81145    0.99088   1.00
H2       0.67452    0.82104    1.03712   1.00
H2       0.83073    0.68410    1.08300   1.00
H2       0.80529    0.68653    1.12895   1.00
H2       0.85819    0.67522    1.19030   1.00
H2       0.65174    0.84487    0.94247   1.00
H2       0.63754    0.86880    0.98763   1.00
C2       0.74780    0.74847    0.89605   1.00
C3       0.75764    0.78316    0.91597   1.00
O2       0.75709    0.81852    0.89674   1.00
C3       0.74067    0.71439    0.91826   1.00
H1       0.73407    0.68714    0.90385   1.00
C3a      0.75912    0.78333    0.95713   1.00
H1       0.76450    0.81062    0.97202   1.00
C3b      0.74095    0.71496    0.95922   1.00
C4       0.75014    0.74960    0.97900   1.00
O3       0.67994    0.76209    1.02167   1.00
C5       0.79542    0.83014    0.88720   1.00
H2       0.81384    0.83322    0.91391   1.00
C5       0.79239    0.86953    0.86674   1.00
H2       0.80949    0.80863    0.86726   1.00
H2       0.78857    0.89258    0.88932   1.00
H2       0.76511    0.86924    0.84907   1.00
C5       0.82794    0.87859    0.84082   1.00
H2       0.85514    0.87571    0.85824   1.00
C5       0.82556    0.92039    0.82453   1.00
H2       0.82931    0.85859    0.81507   1.00
C5       0.63564    0.80479    0.99017   1.00
H2       0.61193    0.80144    1.01215   1.00
H2       0.63301    0.77981    0.96952   1.00
C5       0.63154    0.84364    0.96800   1.00
C5       0.58969    0.84795    0.95225   1.00
H2       0.92627    0.68561    1.19286   1.00
C5       0.92244    0.62164    1.18912   1.00
H2       0.93407    0.66498    1.14323   1.00
C5       0.59653    0.57671    1.03337   1.00
H2       0.65145    0.55858    1.00551   1.00
H2       0.65718    0.58442    1.05293   1.00
C5       0.86456    0.93108    0.80497   1.00
H2       0.80106    0.92217    0.80211   1.00
H2       0.81942    0.94163    0.84937   1.00
H2       0.58105    0.82024    0.93602   1.00
H2       0.56876    0.85293    0.97761   1.00
C5       0.58779    0.88297    0.92417   1.00
H2       0.89356    0.61037    1.20116   1.00
H2       0.93357    0.60081    1.16571   1.00
H2       0.94471    0.62358    1.21374   1.00
H2       0.57837    0.60008    1.01820   1.00
H2       0.58745    0.54670    1.02229   1.00
H2       0.59156    0.57838    1.06621   1.00
H2       0.87654    0.90456    0.78889   1.00
H2       0.85968    0.95588    0.78336   1.00
H2       0.88632    0.94074    0.82819   1.00
H2       0.59330    0.87255    0.89307   1.00
H2       0.55771    0.89701    0.92598   1.00
H2       0.61097    0.90526    0.93266   1.00
C5       0.70145    1.13218    0.86712   1.00
H2       0.73000    1.14745    0.86825   1.00
H2       0.70182    1.11090    0.89157   1.00
C5       0.66828    1.16194    0.87276   1.00
C5       0.66239    1.17123    0.91631   1.00
H2       0.64056    1.15015    0.86060   1.00
O3       0.68091    0.98000    0.73445   1.00
C4       0.75040    1.02100    0.74986   1.00
C3c      0.74340    1.04243    0.78408   1.00
H1       0.73796    1.02725    0.81119   1.00
C3d      0.75797    1.04135    0.71496   1.00
C3       0.74272    1.08354    0.78385   1.00
O2       0.74044    1.10248    0.81919   1.00
C3       0.75658    1.08227    0.71447   1.00
H1       0.76119    1.09657    0.68674   1.00
C2       0.74912    1.10439    0.74872   1.00
C5       0.67175    0.97879    0.69430   1.00
H2       0.66749    0.94838    0.68357   1.00
H2       0.69523    0.99266    0.67650   1.00
C5       0.63383    1.00129    0.68844   1.00
H2       0.63774    1.03137    0.70017   1.00
H2       0.61052    0.98698    0.70605   1.00
C5       0.62238    1.00262    0.64502   1.00
H2       0.61869    0.97268    0.63305   1.00
H2       0.64500    1.01811    0.62762   1.00
C5       0.58343    1.02445    0.64005   1.00
C5       0.80154    1.01105    0.67479   1.00
C5       0.70102    1.11070    0.82816   1.00
H2       0.81145    0.99088    0.69820   1.00
H2       0.82104    1.03712    0.67452   1.00
H2       0.68410    1.08300    0.83073   1.00
H2       0.68653    1.12895    0.80529   1.00
H2       0.67522    1.19030    0.85819   1.00
H2       0.84487    0.94247    0.65174   1.00
H2       0.86880    0.98763    0.63754   1.00
C2       0.74847    0.89605    0.74780   1.00
C3       0.78316    0.91597    0.75764   1.00
O2       0.81852    0.89674    0.75709   1.00
C3       0.71439    0.91826    0.74067   1.00
H1       0.68714    0.90385    0.73407   1.00
C3a      0.78333    0.95713    0.75912   1.00
H1       0.81062    0.97202    0.76450   1.00
C3b      0.71496    0.95922    0.74095   1.00
C4       0.74960    0.97900    0.75014   1.00
O3       0.76209    1.02167    0.67994   1.00
C5       0.83014    0.88720    0.79542   1.00
H2       0.83322    0.91391    0.81384   1.00
C5       0.86953    0.86674    0.79239   1.00
H2       0.80863    0.86726    0.80949   1.00
H2       0.89258    0.88932    0.78857   1.00
H2       0.86924    0.84907    0.76511   1.00
C5       0.87859    0.84082    0.82794   1.00
H2       0.87571    0.85824    0.85514   1.00
C5       0.92039    0.82453    0.82556   1.00
H2       0.85859    0.81507    0.82931   1.00
C5       0.80479    0.99017    0.63564   1.00
H2       0.80144    1.01215    0.61193   1.00
H2       0.77981    0.96952    0.63301   1.00
C5       0.84364    0.96800    0.63154   1.00
C5       0.84795    0.95225    0.58969   1.00
H2       0.68561    1.19286    0.92627   1.00
C5       0.62164    1.18912    0.92244   1.00
H2       0.66498    1.14323    0.93407   1.00
C5       0.57671    1.03337    0.59653   1.00
H2       0.55858    1.00551    0.65145   1.00
H2       0.58442    1.05293    0.65718   1.00
C5       0.93108    0.80497    0.86456   1.00
H2       0.92217    0.80211    0.80106   1.00
H2       0.94163    0.84937    0.81942   1.00
H2       0.82024    0.93602    0.58105   1.00
H2       0.85293    0.97761    0.56876   1.00
C5       0.88297    0.92417    0.58779   1.00
H2       0.61037    1.20116    0.89356   1.00
H2       0.60081    1.16571    0.93357   1.00
H2       0.62358    1.21374    0.94471   1.00
H2       0.60008    1.01820    0.57837   1.00
H2       0.54670    1.02229    0.58745   1.00
H2       0.57838    1.06621    0.59156   1.00
H2       0.90456    0.78889    0.87654   1.00
H2       0.95588    0.78336    0.85968   1.00
H2       0.94074    0.82819    0.88632   1.00
H2       0.87255    0.89307    0.59330   1.00
H2       0.89701    0.92598    0.55771   1.00
H2       0.90526    0.93266    0.61097   1.00
C5       0.36782    0.86712    0.79855   1.00
H2       0.35255    0.86825    0.77000   1.00
H2       0.38910    0.89157    0.79818   1.00
C5       0.33806    0.87276    0.83172   1.00
C5       0.32877    0.91631    0.83761   1.00
H2       0.34985    0.86060    0.85944   1.00
O3       0.52000    0.73445    0.81909   1.00
C4       0.47900    0.74986    0.74960   1.00
C3c      0.45757    0.78408    0.75660   1.00
H1       0.47275    0.81119    0.76204   1.00
C3d      0.45865    0.71496    0.74203   1.00
C3       0.41646    0.78385    0.75728   1.00
O2       0.39752    0.81919    0.75956   1.00
C3       0.41773    0.71447    0.74342   1.00
H1       0.40343    0.68674    0.73881   1.00
C2       0.39561    0.74872    0.75088   1.00
C5       0.52121    0.69430    0.82825   1.00
H2       0.55162    0.68357    0.83251   1.00
H2       0.50734    0.67650    0.80477   1.00
C5       0.49871    0.68844    0.86617   1.00
H2       0.46863    0.70017    0.86226   1.00
H2       0.51302    0.70605    0.88948   1.00
C5       0.49738    0.64502    0.87762   1.00
H2       0.52732    0.63305    0.88131   1.00
H2       0.48189    0.62762    0.85500   1.00
C5       0.47555    0.64005    0.91657   1.00
C5       0.48895    0.67479    0.69846   1.00
C5       0.38930    0.82816    0.79898   1.00
H2       0.50912    0.69820    0.68855   1.00
H2       0.46288    0.67452    0.67896   1.00
H2       0.41700    0.83073    0.81590   1.00
H2       0.37105    0.80529    0.81347   1.00
H2       0.30970    0.85819    0.82478   1.00
H2       0.55753    0.65174    0.65513   1.00
H2       0.51237    0.63754    0.63120   1.00
C2       0.60395    0.74780    0.75153   1.00
C3       0.58403    0.75764    0.71684   1.00
O2       0.60326    0.75709    0.68148   1.00
C3       0.58174    0.74067    0.78561   1.00
H1       0.59615    0.73407    0.81286   1.00
C3a      0.54287    0.75912    0.71667   1.00
H1       0.52798    0.76450    0.68938   1.00
C3b      0.54078    0.74095    0.78504   1.00
C4       0.52100    0.75014    0.75040   1.00
O3       0.47833    0.67994    0.73791   1.00
C5       0.61280    0.79542    0.66986   1.00
H2       0.58609    0.81384    0.66678   1.00
C5       0.63326    0.79239    0.63047   1.00
H2       0.63274    0.80949    0.69137   1.00
H2       0.61068    0.78857    0.60742   1.00
H2       0.65093    0.76511    0.63076   1.00
C5       0.65918    0.82794    0.62141   1.00
H2       0.64176    0.85514    0.62429   1.00
C5       0.67547    0.82556    0.57961   1.00
H2       0.68493    0.82931    0.64141   1.00
C5       0.50983    0.63564    0.69521   1.00
H2       0.48785    0.61193    0.69856   1.00
H2       0.53048    0.63301    0.72019   1.00
C5       0.53200    0.63154    0.65636   1.00
C5       0.54775    0.58969    0.65205   1.00
H2       0.30714    0.92627    0.81439   1.00
C5       0.31088    0.92244    0.87836   1.00
H2       0.35677    0.93407    0.83502   1.00
C5       0.46663    0.59653    0.92329   1.00
H2       0.49449    0.65145    0.94142   1.00
H2       0.44707    0.65718    0.91558   1.00
C5       0.69503    0.86456    0.56892   1.00
H2       0.69789    0.80106    0.57783   1.00
H2       0.65063    0.81942    0.55837   1.00
H2       0.56398    0.58105    0.67976   1.00
H2       0.52239    0.56876    0.64707   1.00
C5       0.57583    0.58779    0.61703   1.00
H2       0.29884    0.89356    0.88963   1.00
H2       0.33429    0.93357    0.89919   1.00
H2       0.28626    0.94471    0.87642   1.00
H2       0.48180    0.57837    0.89992   1.00
H2       0.47771    0.58745    0.95330   1.00
H2       0.43379    0.59156    0.92162   1.00
H2       0.71111    0.87654    0.59544   1.00
H2       0.71664    0.85968    0.54412   1.00
H2       0.67181    0.88632    0.55926   1.00
H2       0.60693    0.59330    0.62745   1.00
H2       0.57402    0.55771    0.60299   1.00
H2       0.56734    0.61097    0.59474   1.00
C5       1.13218    0.86712    0.70145   1.00
H2       1.14745    0.86825    0.73000   1.00
H2       1.11090    0.89157    0.70182   1.00
C5       1.16194    0.87276    0.66828   1.00
C5       1.17123    0.91631    0.66239   1.00
H2       1.15015    0.86060    0.64056   1.00
O3       0.98000    0.73445    0.68091   1.00
C4       1.02100    0.74986    0.75040   1.00
C3c      1.04243    0.78408    0.74340   1.00
H1       1.02725    0.81119    0.73796   1.00
C3d      1.04135    0.71496    0.75797   1.00
C3       1.08354    0.78385    0.74272   1.00
O2       1.10248    0.81919    0.74044   1.00
C3       1.08227    0.71447    0.75658   1.00
H1       1.09657    0.68674    0.76119   1.00
C2       1.10439    0.74872    0.74912   1.00
C5       0.97879    0.69430    0.67175   1.00
H2       0.94838    0.68357    0.66749   1.00
H2       0.99266    0.67650    0.69523   1.00
C5       1.00129    0.68844    0.63383   1.00
H2       1.03137    0.70017    0.63774   1.00
H2       0.98698    0.70605    0.61052   1.00
C5       1.00262    0.64502    0.62238   1.00
H2       0.97268    0.63305    0.61869   1.00
H2       1.01811    0.62762    0.64500   1.00
C5       1.02445    0.64005    0.58343   1.00
C5       1.01105    0.67479    0.80154   1.00
C5       1.11070    0.82816    0.70102   1.00
H2       0.99088    0.69820    0.81145   1.00
H2       1.03712    0.67452    0.82104   1.00
H2       1.08300    0.83073    0.68410   1.00
H2       1.12895    0.80529    0.68653   1.00
H2       1.19030    0.85819    0.67522   1.00
H2       0.94247    0.65174    0.84487   1.00
H2       0.98763    0.63754    0.86880   1.00
C2       0.89605    0.74780    0.74847   1.00
C3       0.91597    0.75764    0.78316   1.00
O2       0.89674    0.75709    0.81852   1.00
C3       0.91826    0.74067    0.71439   1.00
H1       0.90385    0.73407    0.68714   1.00
C3a      0.95713    0.75912    0.78333   1.00
H1       0.97202    0.76450    0.81062   1.00
C3b      0.95922    0.74095    0.71496   1.00
C4       0.97900    0.75014    0.74960   1.00
O3       1.02167    0.67994    0.76209   1.00
C5       0.88720    0.79542    0.83014   1.00
H2       0.91391    0.81384    0.83322   1.00
C5       0.86674    0.79239    0.86953   1.00
H2       0.86726    0.80949    0.80863   1.00
H2       0.88932    0.78857    0.89258   1.00
H2       0.84907    0.76511    0.86924   1.00
C5       0.84082    0.82794    0.87859   1.00
H2       0.85824    0.85514    0.87571   1.00
C5       0.82453    0.82556    0.92039   1.00
H2       0.81507    0.82931    0.85859   1.00
C5       0.99017    0.63564    0.80479   1.00
H2       1.01215    0.61193    0.80144   1.00
H2       0.96952    0.63301    0.77981   1.00
C5       0.96800    0.63154    0.84364   1.00
C5       0.95225    0.58969    0.84795   1.00
H2       1.19286    0.92627    0.68561   1.00
C5       1.18912    0.92244    0.62164   1.00
H2       1.14323    0.93407    0.66498   1.00
C5       1.03337    0.59653    0.57671   1.00
H2       1.00551    0.65145    0.55858   1.00
H2       1.05293    0.65718    0.58442   1.00
C5       0.80497    0.86456    0.93108   1.00
H2       0.80211    0.80106    0.92217   1.00
H2       0.84937    0.81942    0.94163   1.00
H2       0.93602    0.58105    0.82024   1.00
H2       0.97761    0.56876    0.85293   1.00
C5       0.92417    0.58779    0.88297   1.00
H2       1.20116    0.89356    0.61037   1.00
H2       1.16571    0.93357    0.60081   1.00
H2       1.21374    0.94471    0.62358   1.00
H2       1.01820    0.57837    0.60008   1.00
H2       1.02229    0.58745    0.54670   1.00
H2       1.06621    0.59156    0.57838   1.00
H2       0.78889    0.87654    0.90456   1.00
H2       0.78336    0.85968    0.95588   1.00
H2       0.82819    0.88632    0.94074   1.00
H2       0.89307    0.59330    0.87255   1.00
H2       0.92598    0.55771    0.89701   1.00
H2       0.93266    0.61097    0.90526   1.00
C5       0.79855    0.36782    0.86712   1.00
H2       0.77000    0.35255    0.86825   1.00
H2       0.79818    0.38910    0.89157   1.00
C5       0.83172    0.33806    0.87276   1.00
C5       0.83761    0.32877    0.91631   1.00
H2       0.85944    0.34985    0.86060   1.00
O3       0.81909    0.52000    0.73445   1.00
C4       0.74960    0.47900    0.74986   1.00
C3c      0.75660    0.45757    0.78408   1.00
H1       0.76204    0.47275    0.81119   1.00
C3d      0.74203    0.45865    0.71496   1.00
C3       0.75728    0.41646    0.78385   1.00
O2       0.75956    0.39752    0.81919   1.00
C3       0.74342    0.41773    0.71447   1.00
H1       0.73881    0.40343    0.68674   1.00
C2       0.75088    0.39561    0.74872   1.00
C5       0.82825    0.52121    0.69430   1.00
H2       0.83251    0.55162    0.68357   1.00
H2       0.80477    0.50734    0.67650   1.00
C5       0.86617    0.49871    0.68844   1.00
H2       0.86226    0.46863    0.70017   1.00
H2       0.88948    0.51302    0.70605   1.00
C5       0.87762    0.49738    0.64502   1.00
H2       0.88131    0.52732    0.63305   1.00
H2       0.85500    0.48189    0.62762   1.00
C5       0.91657    0.47555    0.64005   1.00
C5       0.69846    0.48895    0.67479   1.00
C5       0.79898    0.38930    0.82816   1.00
H2       0.68855    0.50912    0.69820   1.00
H2       0.67896    0.46288    0.67452   1.00
H2       0.81590    0.41700    0.83073   1.00
H2       0.81347    0.37105    0.80529   1.00
H2       0.82478    0.30970    0.85819   1.00
H2       0.65513    0.55753    0.65174   1.00
H2       0.63120    0.51237    0.63754   1.00
C2       0.75153    0.60395    0.74780   1.00
C3       0.71684    0.58403    0.75764   1.00
O2       0.68148    0.60326    0.75709   1.00
C3       0.78561    0.58174    0.74067   1.00
H1       0.81286    0.59615    0.73407   1.00
C3a      0.71667    0.54287    0.75912   1.00
H1       0.68938    0.52798    0.76450   1.00
C3b      0.78504    0.54078    0.74095   1.00
C4       0.75040    0.52100    0.75014   1.00
O3       0.73791    0.47833    0.67994   1.00
C5       0.66986    0.61280    0.79542   1.00
H2       0.66678    0.58609    0.81384   1.00
C5       0.63047    0.63326    0.79239   1.00
H2       0.69137    0.63274    0.80949   1.00
H2       0.60742    0.61068    0.78857   1.00
H2       0.63076    0.65093    0.76511   1.00
C5       0.62141    0.65918    0.82794   1.00
H2       0.62429    0.64176    0.85514   1.00
C5       0.57961    0.67547    0.82556   1.00
H2       0.64141    0.68493    0.82931   1.00
C5       0.69521    0.50983    0.63564   1.00
H2       0.69856    0.48785    0.61193   1.00
H2       0.72019    0.53048    0.63301   1.00
C5       0.65636    0.53200    0.63154   1.00
C5       0.65205    0.54775    0.58969   1.00
H2       0.81439    0.30714    0.92627   1.00
C5       0.87836    0.31088    0.92244   1.00
H2       0.83502    0.35677    0.93407   1.00
C5       0.92329    0.46663    0.59653   1.00
H2       0.94142    0.49449    0.65145   1.00
H2       0.91558    0.44707    0.65718   1.00
C5       0.56892    0.69503    0.86456   1.00
H2       0.57783    0.69789    0.80106   1.00
H2       0.55837    0.65063    0.81942   1.00
H2       0.67976    0.56398    0.58105   1.00
H2       0.64707    0.52239    0.56876   1.00
C5       0.61703    0.57583    0.58779   1.00
H2       0.88963    0.29884    0.89356   1.00
H2       0.89919    0.33429    0.93357   1.00
H2       0.87642    0.28626    0.94471   1.00
H2       0.89992    0.48180    0.57837   1.00
H2       0.95330    0.47771    0.58745   1.00
H2       0.92162    0.43379    0.59156   1.00
H2       0.59544    0.71111    0.87654   1.00
H2       0.54412    0.71664    0.85968   1.00
H2       0.55926    0.67181    0.88632   1.00
H2       0.62745    0.60693    0.59330   1.00
H2       0.60299    0.57402    0.55771   1.00
H2       0.59474    0.56734    0.61097   1.00
C5       0.86712    0.79855    0.36782   1.00
H2       0.86825    0.77000    0.35255   1.00
H2       0.89157    0.79818    0.38910   1.00
C5       0.87276    0.83172    0.33806   1.00
C5       0.91631    0.83761    0.32877   1.00
H2       0.86060    0.85944    0.34985   1.00
O3       0.73445    0.81909    0.52000   1.00
C4       0.74986    0.74960    0.47900   1.00
C3c      0.78408    0.75660    0.45757   1.00
H1       0.81119    0.76204    0.47275   1.00
C3d      0.71496    0.74203    0.45865   1.00
C3       0.78385    0.75728    0.41646   1.00
O2       0.81919    0.75956    0.39752   1.00
C3       0.71447    0.74342    0.41773   1.00
H1       0.68674    0.73881    0.40343   1.00
C2       0.74872    0.75088    0.39561   1.00
C5       0.69430    0.82825    0.52121   1.00
H2       0.68357    0.83251    0.55162   1.00
H2       0.67650    0.80477    0.50734   1.00
C5       0.68844    0.86617    0.49871   1.00
H2       0.70017    0.86226    0.46863   1.00
H2       0.70605    0.88948    0.51302   1.00
C5       0.64502    0.87762    0.49738   1.00
H2       0.63305    0.88131    0.52732   1.00
H2       0.62762    0.85500    0.48189   1.00
C5       0.64005    0.91657    0.47555   1.00
C5       0.67479    0.69846    0.48895   1.00
C5       0.82816    0.79898    0.38930   1.00
H2       0.69820    0.68855    0.50912   1.00
H2       0.67452    0.67896    0.46288   1.00
H2       0.83073    0.81590    0.41700   1.00
H2       0.80529    0.81347    0.37105   1.00
H2       0.85819    0.82478    0.30970   1.00
H2       0.65174    0.65513    0.55753   1.00
H2       0.63754    0.63120    0.51237   1.00
C2       0.74780    0.75153    0.60395   1.00
C3       0.75764    0.71684    0.58403   1.00
O2       0.75709    0.68148    0.60326   1.00
C3       0.74067    0.78561    0.58174   1.00
H1       0.73407    0.81286    0.59615   1.00
C3a      0.75912    0.71667    0.54287   1.00
H1       0.76450    0.68938    0.52798   1.00
C3b      0.74095    0.78504    0.54078   1.00
C4       0.75014    0.75040    0.52100   1.00
O3       0.67994    0.73791    0.47833   1.00
C5       0.79542    0.66986    0.61280   1.00
H2       0.81384    0.66678    0.58609   1.00
C5       0.79239    0.63047    0.63326   1.00
H2       0.80949    0.69137    0.63274   1.00
H2       0.78857    0.60742    0.61068   1.00
H2       0.76511    0.63076    0.65093   1.00
C5       0.82794    0.62141    0.65918   1.00
H2       0.85514    0.62429    0.64176   1.00
C5       0.82556    0.57961    0.67547   1.00
H2       0.82931    0.64141    0.68493   1.00
C5       0.63564    0.69521    0.50983   1.00
H2       0.61193    0.69856    0.48785   1.00
H2       0.63301    0.72019    0.53048   1.00
C5       0.63154    0.65636    0.53200   1.00
C5       0.58969    0.65205    0.54775   1.00
H2       0.92627    0.81439    0.30714   1.00
C5       0.92244    0.87836    0.31088   1.00
H2       0.93407    0.83502    0.35677   1.00
C5       0.59653    0.92329    0.46663   1.00
H2       0.65145    0.94142    0.49449   1.00
H2       0.65718    0.91558    0.44707   1.00
C5       0.86456    0.56892    0.69503   1.00
H2       0.80106    0.57783    0.69789   1.00
H2       0.81942    0.55837    0.65063   1.00
H2       0.58105    0.67976    0.56398   1.00
H2       0.56876    0.64707    0.52239   1.00
C5       0.58779    0.61703    0.57583   1.00
H2       0.89356    0.88963    0.29884   1.00
H2       0.93357    0.89919    0.33429   1.00
H2       0.94471    0.87642    0.28626   1.00
H2       0.57837    0.89992    0.48180   1.00
H2       0.58745    0.95330    0.47771   1.00
H2       0.59156    0.92162    0.43379   1.00
H2       0.87654    0.59544    0.71111   1.00
H2       0.85968    0.54412    0.71664   1.00
H2       0.88632    0.55926    0.67181   1.00
H2       0.59330    0.62745    0.60693   1.00
H2       0.55771    0.60299    0.57402   1.00
H2       0.61097    0.59474    0.56734   1.00
C5       0.36712    0.20145    1.13218   1.00
H2       0.36825    0.23000    1.14745   1.00
H2       0.39157    0.20182    1.11090   1.00
C5       0.37276    0.16828    1.16194   1.00
C5       0.41631    0.16239    1.17123   1.00
H2       0.36060    0.14056    1.15015   1.00
O3       0.23445    0.18091    0.98000   1.00
C4       0.24986    0.25040    1.02100   1.00
C3c      0.28408    0.24340    1.04243   1.00
H1       0.31119    0.23796    1.02725   1.00
C3d      0.21496    0.25797    1.04135   1.00
C3       0.28385    0.24272    1.08354   1.00
O2       0.31919    0.24044    1.10248   1.00
C3       0.21447    0.25658    1.08227   1.00
H1       0.18674    0.26119    1.09657   1.00
C2       0.24872    0.24912    1.10439   1.00
C5       0.19430    0.17175    0.97879   1.00
H2       0.18357    0.16749    0.94838   1.00
H2       0.17650    0.19523    0.99266   1.00
C5       0.18844    0.13383    1.00129   1.00
H2       0.20017    0.13774    1.03137   1.00
H2       0.20605    0.11052    0.98698   1.00
C5       0.14502    0.12238    1.00262   1.00
H2       0.13305    0.11869    0.97268   1.00
H2       0.12762    0.14500    1.01811   1.00
C5       0.14005    0.08343    1.02445   1.00
C5       0.17479    0.30154    1.01105   1.00
C5       0.32816    0.20102    1.11070   1.00
H2       0.19820    0.31145    0.99088   1.00
H2       0.17452    0.32104    1.03712   1.00
H2       0.33073    0.18410    1.08300   1.00
H2       0.30529    0.18653    1.12895   1.00
H2       0.35819    0.17522    1.19030   1.00
H2       0.15174    0.34487    0.94247   1.00
H2       0.13754    0.36880    0.98763   1.00
C2       0.24780    0.24847    0.89605   1.00
C3       0.25764    0.28316    0.91597   1.00
O2       0.25709    0.31852    0.89674   1.00
C3       0.24067    0.21439    0.91826   1.00
H1       0.23407    0.18714    0.90385   1.00
C3a      0.25912    0.28333    0.95713   1.00
H1       0.26450    0.31062    0.97202   1.00
C3b      0.24095    0.21496    0.95922   1.00
C4       0.25014    0.24960    0.97900   1.00
O3       0.17994    0.26209    1.02167   1.00
C5       0.29542    0.33014    0.88720   1.00
H2       0.31384    0.33322    0.91391   1.00
C5       0.29239    0.36953    0.86674   1.00
H2       0.30949    0.30863    0.86726   1.00
H2       0.28857    0.39258    0.88932   1.00
H2       0.26511    0.36924    0.84907   1.00
C5       0.32794    0.37859    0.84082   1.00
H2       0.35514    0.37571    0.85824   1.00
C5       0.32556    0.42039    0.82453   1.00
H2       0.32931    0.35859    0.81507   1.00
C5       0.13564    0.30479    0.99017   1.00
H2       0.11193    0.30144    1.01215   1.00
H2       0.13301    0.27981    0.96952   1.00
C5       0.13154    0.34364    0.96800   1.00
C5       0.08969    0.34795    0.95225   1.00
H2       0.42627    0.18561    1.19286   1.00
C5       0.42244    0.12164    1.18912   1.00
H2       0.43407    0.16498    1.14323   1.00
C5       0.09653    0.07671    1.03337   1.00
H2       0.15145    0.05858    1.00551   1.00
H2       0.15718    0.08442    1.05293   1.00
C5       0.36456    0.43108    0.80497   1.00
H2       0.30106    0.42217    0.80211   1.00
H2       0.31942    0.44163    0.84937   1.00
H2       0.08105    0.32024    0.93602   1.00
H2       0.06876    0.35293    0.97761   1.00
C5       0.08779    0.38297    0.92417   1.00
H2       0.39356    0.11037    1.20116   1.00
H2       0.43357    0.10081    1.16571   1.00
H2       0.44471    0.12358    1.21374   1.00
H2       0.07837    0.10008    1.01820   1.00
H2       0.08745    0.04670    1.02229   1.00
H2       0.09156    0.07838    1.06621   1.00
H2       0.37654    0.40456    0.78889   1.00
H2       0.35968    0.45588    0.78336   1.00
H2       0.38632    0.44074    0.82819   1.00
H2       0.09330    0.37255    0.89307   1.00
H2       0.05771    0.39701    0.92598   1.00
H2       0.11097    0.40526    0.93266   1.00
C5       0.20145    0.63218    0.86712   1.00
H2       0.23000    0.64745    0.86825   1.00
H2       0.20182    0.61090    0.89157   1.00
C5       0.16828    0.66194    0.87276   1.00
C5       0.16239    0.67123    0.91631   1.00
H2       0.14056    0.65015    0.86060   1.00
O3       0.18091    0.48000    0.73445   1.00
C4       0.25040    0.52100    0.74986   1.00
C3c      0.24340    0.54243    0.78408   1.00
H1       0.23796    0.52725    0.81119   1.00
C3d      0.25797    0.54135    0.71496   1.00
C3       0.24272    0.58354    0.78385   1.00
O2       0.24044    0.60248    0.81919   1.00
C3       0.25658    0.58227    0.71447   1.00
H1       0.26119    0.59657    0.68674   1.00
C2       0.24912    0.60439    0.74872   1.00
C5       0.17175    0.47879    0.69430   1.00
H2       0.16749    0.44838    0.68357   1.00
H2       0.19523    0.49266    0.67650   1.00
C5       0.13383    0.50129    0.68844   1.00
H2       0.13774    0.53137    0.70017   1.00
H2       0.11052    0.48698    0.70605   1.00
C5       0.12238    0.50262    0.64502   1.00
H2       0.11869    0.47268    0.63305   1.00
H2       0.14500    0.51811    0.62762   1.00
C5       0.08343    0.52445    0.64005   1.00
C5       0.30154    0.51105    0.67479   1.00
C5       0.20102    0.61070    0.82816   1.00
H2       0.31145    0.49088    0.69820   1.00
H2       0.32104    0.53712    0.67452   1.00
H2       0.18410    0.58300    0.83073   1.00
H2       0.18653    0.62895    0.80529   1.00
H2       0.17522    0.69030    0.85819   1.00
H2       0.34487    0.44247    0.65174   1.00
H2       0.36880    0.48763    0.63754   1.00
C2       0.24847    0.39605    0.74780   1.00
C3       0.28316    0.41597    0.75764   1.00
O2       0.31852    0.39674    0.75709   1.00
C3       0.21439    0.41826    0.74067   1.00
H1       0.18714    0.40385    0.73407   1.00
C3a      0.28333    0.45713    0.75912   1.00
H1       0.31062    0.47202    0.76450   1.00
C3b      0.21496    0.45922    0.74095   1.00
C4       0.24960    0.47900    0.75014   1.00
O3       0.26209    0.52167    0.67994   1.00
C5       0.33014    0.38720    0.79542   1.00
H2       0.33322    0.41391    0.81384   1.00
C5       0.36953    0.36674    0.79239   1.00
H2       0.30863    0.36726    0.80949   1.00
H2       0.39258    0.38932    0.78857   1.00
H2       0.36924    0.34907    0.76511   1.00
C5       0.37859    0.34082    0.82794   1.00
H2       0.37571    0.35824    0.85514   1.00
C5       0.42039    0.32453    0.82556   1.00
H2       0.35859    0.31507    0.82931   1.00
C5       0.30479    0.49017    0.63564   1.00
H2       0.30144    0.51215    0.61193   1.00
H2       0.27981    0.46952    0.63301   1.00
C5       0.34364    0.46800    0.63154   1.00
C5       0.34795    0.45225    0.58969   1.00
H2       0.18561    0.69286    0.92627   1.00
C5       0.12164    0.68912    0.92244   1.00
H2       0.16498    0.64323    0.93407   1.00
C5       0.07671    0.53337    0.59653   1.00
H2       0.05858    0.50551    0.65145   1.00
H2       0.08442    0.55293    0.65718   1.00
C5       0.43108    0.30497    0.86456   1.00
H2       0.42217    0.30211    0.80106   1.00
H2       0.44163    0.34937    0.81942   1.00
H2       0.32024    0.43602    0.58105   1.00
H2       0.35293    0.47761    0.56876   1.00
C5       0.38297    0.42417    0.58779   1.00
H2       0.11037    0.70116    0.89356   1.00
H2       0.10081    0.66571    0.93357   1.00
H2       0.12358    0.71374    0.94471   1.00
H2       0.10008    0.51820    0.57837   1.00
H2       0.04670    0.52229    0.58745   1.00
H2       0.07838    0.56621    0.59156   1.00
H2       0.40456    0.28889    0.87654   1.00
H2       0.45588    0.28336    0.85968   1.00
H2       0.44074    0.32819    0.88632   1.00
H2       0.37255    0.39307    0.59330   1.00
H2       0.39701    0.42598    0.55771   1.00
H2       0.40526    0.43266    0.61097   1.00
C5       -0.13218   0.36712    0.79855   1.00
H2       -0.14745   0.36825    0.77000   1.00
H2       -0.11090   0.39157    0.79818   1.00
C5       -0.16194   0.37276    0.83172   1.00
C5       -0.17123   0.41631    0.83761   1.00
H2       -0.15015   0.36060    0.85944   1.00
O3       0.02000    0.23445    0.81909   1.00
C4       -0.02100   0.24986    0.74960   1.00
C3c      -0.04243   0.28408    0.75660   1.00
H1       -0.02725   0.31119    0.76204   1.00
C3d      -0.04135   0.21496    0.74203   1.00
C3       -0.08354   0.28385    0.75728   1.00
O2       -0.10248   0.31919    0.75956   1.00
C3       -0.08227   0.21447    0.74342   1.00
H1       -0.09657   0.18674    0.73881   1.00
C2       -0.10439   0.24872    0.75088   1.00
C5       0.02121    0.19430    0.82825   1.00
H2       0.05162    0.18357    0.83251   1.00
H2       0.00734    0.17650    0.80477   1.00
C5       -0.00129   0.18844    0.86617   1.00
H2       -0.03137   0.20017    0.86226   1.00
H2       0.01302    0.20605    0.88948   1.00
C5       -0.00262   0.14502    0.87762   1.00
H2       0.02732    0.13305    0.88131   1.00
H2       -0.01811   0.12762    0.85500   1.00
C5       -0.02445   0.14005    0.91657   1.00
C5       -0.01105   0.17479    0.69846   1.00
C5       -0.11070   0.32816    0.79898   1.00
H2       0.00912    0.19820    0.68855   1.00
H2       -0.03712   0.17452    0.67896   1.00
H2       -0.08300   0.33073    0.81590   1.00
H2       -0.12895   0.30529    0.81347   1.00
H2       -0.19030   0.35819    0.82478   1.00
H2       0.05753    0.15174    0.65513   1.00
H2       0.01237    0.13754    0.63120   1.00
C2       0.10395    0.24780    0.75153   1.00
C3       0.08403    0.25764    0.71684   1.00
O2       0.10326    0.25709    0.68148   1.00
C3       0.08174    0.24067    0.78561   1.00
H1       0.09615    0.23407    0.81286   1.00
C3a      0.04287    0.25912    0.71667   1.00
H1       0.02798    0.26450    0.68938   1.00
C3b      0.04078    0.24095    0.78504   1.00
C4       0.02100    0.25014    0.75040   1.00
O3       -0.02167   0.17994    0.73791   1.00
C5       0.11280    0.29542    0.66986   1.00
H2       0.08609    0.31384    0.66678   1.00
C5       0.13326    0.29239    0.63047   1.00
H2       0.13274    0.30949    0.69137   1.00
H2       0.11068    0.28857    0.60742   1.00
H2       0.15093    0.26511    0.63076   1.00
C5       0.15918    0.32794    0.62141   1.00
H2       0.14176    0.35514    0.62429   1.00
C5       0.17547    0.32556    0.57961   1.00
H2       0.18493    0.32931    0.64141   1.00
C5       0.00983    0.13564    0.69521   1.00
H2       -0.01215   0.11193    0.69856   1.00
H2       0.03048    0.13301    0.72019   1.00
C5       0.03200    0.13154    0.65636   1.00
C5       0.04775    0.08969    0.65205   1.00
H2       -0.19286   0.42627    0.81439   1.00
C5       -0.18912   0.42244    0.87836   1.00
H2       -0.14323   0.43407    0.83502   1.00
C5       -0.03337   0.09653    0.92329   1.00
H2       -0.00551   0.15145    0.94142   1.00
H2       -0.05293   0.15718    0.91558   1.00
C5       0.19503    0.36456    0.56892   1.00
H2       0.19789    0.30106    0.57783   1.00
H2       0.15063    0.31942    0.55837   1.00
H2       0.06398    0.08105    0.67976   1.00
H2       0.02239    0.06876    0.64707   1.00
C5       0.07583    0.08779    0.61703   1.00
H2       -0.20116   0.39356    0.88963   1.00
H2       -0.16571   0.43357    0.89919   1.00
H2       -0.21374   0.44471    0.87642   1.00
H2       -0.01820   0.07837    0.89992   1.00
H2       -0.02229   0.08745    0.95330   1.00
H2       -0.06621   0.09156    0.92162   1.00
H2       0.21111    0.37654    0.59544   1.00
H2       0.21664    0.35968    0.54412   1.00
H2       0.17181    0.38632    0.55926   1.00
H2       0.10693    0.09330    0.62745   1.00
H2       0.07402    0.05771    0.60299   1.00
H2       0.06734    0.11097    0.59474   1.00
C5       0.63218    0.36712    0.70145   1.00
H2       0.64745    0.36825    0.73000   1.00
H2       0.61090    0.39157    0.70182   1.00
C5       0.66194    0.37276    0.66828   1.00
C5       0.67123    0.41631    0.66239   1.00
H2       0.65015    0.36060    0.64056   1.00
O3       0.48000    0.23445    0.68091   1.00
C4       0.52100    0.24986    0.75040   1.00
C3c      0.54243    0.28408    0.74340   1.00
H1       0.52725    0.31119    0.73796   1.00
C3d      0.54135    0.21496    0.75797   1.00
C3       0.58354    0.28385    0.74272   1.00
O2       0.60248    0.31919    0.74044   1.00
C3       0.58227    0.21447    0.75658   1.00
H1       0.59657    0.18674    0.76119   1.00
C2       0.60439    0.24872    0.74912   1.00
C5       0.47879    0.19430    0.67175   1.00
H2       0.44838    0.18357    0.66749   1.00
H2       0.49266    0.17650    0.69523   1.00
C5       0.50129    0.18844    0.63383   1.00
H2       0.53137    0.20017    0.63774   1.00
H2       0.48698    0.20605    0.61052   1.00
C5       0.50262    0.14502    0.62238   1.00
H2       0.47268    0.13305    0.61869   1.00
H2       0.51811    0.12762    0.64500   1.00
C5       0.52445    0.14005    0.58343   1.00
C5       0.51105    0.17479    0.80154   1.00
C5       0.61070    0.32816    0.70102   1.00
H2       0.49088    0.19820    0.81145   1.00
H2       0.53712    0.17452    0.82104   1.00
H2       0.58300    0.33073    0.68410   1.00
H2       0.62895    0.30529    0.68653   1.00
H2       0.69030    0.35819    0.67522   1.00
H2       0.44247    0.15174    0.84487   1.00
H2       0.48763    0.13754    0.86880   1.00
C2       0.39605    0.24780    0.74847   1.00
C3       0.41597    0.25764    0.78316   1.00
O2       0.39674    0.25709    0.81852   1.00
C3       0.41826    0.24067    0.71439   1.00
H1       0.40385    0.23407    0.68714   1.00
C3a      0.45713    0.25912    0.78333   1.00
H1       0.47202    0.26450    0.81062   1.00
C3b      0.45922    0.24095    0.71496   1.00
C4       0.47900    0.25014    0.74960   1.00
O3       0.52167    0.17994    0.76209   1.00
C5       0.38720    0.29542    0.83014   1.00
H2       0.41391    0.31384    0.83322   1.00
C5       0.36674    0.29239    0.86953   1.00
H2       0.36726    0.30949    0.80863   1.00
H2       0.38932    0.28857    0.89258   1.00
H2       0.34907    0.26511    0.86924   1.00
C5       0.34082    0.32794    0.87859   1.00
H2       0.35824    0.35514    0.87571   1.00
C5       0.32453    0.32556    0.92039   1.00
H2       0.31507    0.32931    0.85859   1.00
C5       0.49017    0.13564    0.80479   1.00
H2       0.51215    0.11193    0.80144   1.00
H2       0.46952    0.13301    0.77981   1.00
C5       0.46800    0.13154    0.84364   1.00
C5       0.45225    0.08969    0.84795   1.00
H2       0.69286    0.42627    0.68561   1.00
C5       0.68912    0.42244    0.62164   1.00
H2       0.64323    0.43407    0.66498   1.00
C5       0.53337    0.09653    0.57671   1.00
H2       0.50551    0.15145    0.55858   1.00
H2       0.55293    0.15718    0.58442   1.00
C5       0.30497    0.36456    0.93108   1.00
H2       0.30211    0.30106    0.92217   1.00
H2       0.34937    0.31942    0.94163   1.00
H2       0.43602    0.08105    0.82024   1.00
H2       0.47761    0.06876    0.85293   1.00
C5       0.42417    0.08779    0.88297   1.00
H2       0.70116    0.39356    0.61037   1.00
H2       0.66571    0.43357    0.60081   1.00
H2       0.71374    0.44471    0.62358   1.00
H2       0.51820    0.07837    0.60008   1.00
H2       0.52229    0.08745    0.54670   1.00
H2       0.56621    0.09156    0.57838   1.00
H2       0.28889    0.37654    0.90456   1.00
H2       0.28336    0.35968    0.95588   1.00
H2       0.32819    0.38632    0.94074   1.00
H2       0.39307    0.09330    0.87255   1.00
H2       0.42598    0.05771    0.89701   1.00
H2       0.43266    0.11097    0.90526   1.00
C5       0.29855    -0.13218   0.86712   1.00
H2       0.27000    -0.14745   0.86825   1.00
H2       0.29818    -0.11090   0.89157   1.00
C5       0.33172    -0.16194   0.87276   1.00
C5       0.33761    -0.17123   0.91631   1.00
H2       0.35944    -0.15015   0.86060   1.00
O3       0.31909    0.02000    0.73445   1.00
C4       0.24960    -0.02100   0.74986   1.00
C3c      0.25660    -0.04243   0.78408   1.00
H1       0.26204    -0.02725   0.81119   1.00
C3d      0.24203    -0.04135   0.71496   1.00
C3       0.25728    -0.08354   0.78385   1.00
O2       0.25956    -0.10248   0.81919   1.00
C3       0.24342    -0.08227   0.71447   1.00
H1       0.23881    -0.09657   0.68674   1.00
C2       0.25088    -0.10439   0.74872   1.00
C5       0.32825    0.02121    0.69430   1.00
H2       0.33251    0.05162    0.68357   1.00
H2       0.30477    0.00734    0.67650   1.00
C5       0.36617    -0.00129   0.68844   1.00
H2       0.36226    -0.03137   0.70017   1.00
H2       0.38948    0.01302    0.70605   1.00
C5       0.37762    -0.00262   0.64502   1.00
H2       0.38131    0.02732    0.63305   1.00
H2       0.35500    -0.01811   0.62762   1.00
C5       0.41657    -0.02445   0.64005   1.00
C5       0.19846    -0.01105   0.67479   1.00
C5       0.29898    -0.11070   0.82816   1.00
H2       0.18855    0.00912    0.69820   1.00
H2       0.17896    -0.03712   0.67452   1.00
H2       0.31590    -0.08300   0.83073   1.00
H2       0.31347    -0.12895   0.80529   1.00
H2       0.32478    -0.19030   0.85819   1.00
H2       0.15513    0.05753    0.65174   1.00
H2       0.13120    0.01237    0.63754   1.00
C2       0.25153    0.10395    0.74780   1.00
C3       0.21684    0.08403    0.75764   1.00
O2       0.18148    0.10326    0.75709   1.00
C3       0.28561    0.08174    0.74067   1.00
H1       0.31286    0.09615    0.73407   1.00
C3a      0.21667    0.04287    0.75912   1.00
H1       0.18938    0.02798    0.76450   1.00
C3b      0.28504    0.04078    0.74095   1.00
C4       0.25040    0.02100    0.75014   1.00
O3       0.23791    -0.02167   0.67994   1.00
C5       0.16986    0.11280    0.79542   1.00
H2       0.16678    0.08609    0.81384   1.00
C5       0.13047    0.13326    0.79239   1.00
H2       0.19137    0.13274    0.80949   1.00
H2       0.10742    0.11068    0.78857   1.00
H2       0.13076    0.15093    0.76511   1.00
C5       0.12141    0.15918    0.82794   1.00
H2       0.12429    0.14176    0.85514   1.00
C5       0.07961    0.17547    0.82556   1.00
H2       0.14141    0.18493    0.82931   1.00
C5       0.19521    0.00983    0.63564   1.00
H2       0.19856    -0.01215   0.61193   1.00
H2       0.22019    0.03048    0.63301   1.00
C5       0.15636    0.03200    0.63154   1.00
C5       0.15205    0.04775    0.58969   1.00
H2       0.31439    -0.19286   0.92627   1.00
C5       0.37836    -0.18912   0.92244   1.00
H2       0.33502    -0.14323   0.93407   1.00
C5       0.42329    -0.03337   0.59653   1.00
H2       0.44142    -0.00551   0.65145   1.00
H2       0.41558    -0.05293   0.65718   1.00
C5       0.06892    0.19503    0.86456   1.00
H2       0.07783    0.19789    0.80106   1.00
H2       0.05837    0.15063    0.81942   1.00
H2       0.17976    0.06398    0.58105   1.00
H2       0.14707    0.02239    0.56876   1.00
C5       0.11703    0.07583    0.58779   1.00
H2       0.38963    -0.20116   0.89356   1.00
H2       0.39919    -0.16571   0.93357   1.00
H2       0.37642    -0.21374   0.94471   1.00
H2       0.39992    -0.01820   0.57837   1.00
H2       0.45330    -0.02229   0.58745   1.00
H2       0.42162    -0.06621   0.59156   1.00
H2       0.09544    0.21111    0.87654   1.00
H2       0.04412    0.21664    0.85968   1.00
H2       0.05926    0.17181    0.88632   1.00
H2       0.12745    0.10693    0.59330   1.00
H2       0.10299    0.07402    0.55771   1.00
H2       0.09474    0.06734    0.61097   1.00
C5       0.36712    0.29855    0.36782   1.00
H2       0.36825    0.27000    0.35255   1.00
H2       0.39157    0.29818    0.38910   1.00
C5       0.37276    0.33172    0.33806   1.00
C5       0.41631    0.33761    0.32877   1.00
H2       0.36060    0.35944    0.34985   1.00
O3       0.23445    0.31909    0.52000   1.00
C4       0.24986    0.24960    0.47900   1.00
C3c      0.28408    0.25660    0.45757   1.00
H1       0.31119    0.26204    0.47275   1.00
C3d      0.21496    0.24203    0.45865   1.00
C3       0.28385    0.25728    0.41646   1.00
O2       0.31919    0.25956    0.39752   1.00
C3       0.21447    0.24342    0.41773   1.00
H1       0.18674    0.23881    0.40343   1.00
C2       0.24872    0.25088    0.39561   1.00
C5       0.19430    0.32825    0.52121   1.00
H2       0.18357    0.33251    0.55162   1.00
H2       0.17650    0.30477    0.50734   1.00
C5       0.18844    0.36617    0.49871   1.00
H2       0.20017    0.36226    0.46863   1.00
H2       0.20605    0.38948    0.51302   1.00
C5       0.14502    0.37762    0.49738   1.00
H2       0.13305    0.38131    0.52732   1.00
H2       0.12762    0.35500    0.48189   1.00
C5       0.14005    0.41657    0.47555   1.00
C5       0.17479    0.19846    0.48895   1.00
C5       0.32816    0.29898    0.38930   1.00
H2       0.19820    0.18855    0.50912   1.00
H2       0.17452    0.17896    0.46288   1.00
H2       0.33073    0.31590    0.41700   1.00
H2       0.30529    0.31347    0.37105   1.00
H2       0.35819    0.32478    0.30970   1.00
H2       0.15174    0.15513    0.55753   1.00
H2       0.13754    0.13120    0.51237   1.00
C2       0.24780    0.25153    0.60395   1.00
C3       0.25764    0.21684    0.58403   1.00
O2       0.25709    0.18148    0.60326   1.00
C3       0.24067    0.28561    0.58174   1.00
H1       0.23407    0.31286    0.59615   1.00
C3a      0.25912    0.21667    0.54287   1.00
H1       0.26450    0.18938    0.52798   1.00
C3b      0.24095    0.28504    0.54078   1.00
C4       0.25014    0.25040    0.52100   1.00
O3       0.17994    0.23791    0.47833   1.00
C5       0.29542    0.16986    0.61280   1.00
H2       0.31384    0.16678    0.58609   1.00
C5       0.29239    0.13047    0.63326   1.00
H2       0.30949    0.19137    0.63274   1.00
H2       0.28857    0.10742    0.61068   1.00
H2       0.26511    0.13076    0.65093   1.00
C5       0.32794    0.12141    0.65918   1.00
H2       0.35514    0.12429    0.64176   1.00
C5       0.32556    0.07961    0.67547   1.00
H2       0.32931    0.14141    0.68493   1.00
C5       0.13564    0.19521    0.50983   1.00
H2       0.11193    0.19856    0.48785   1.00
H2       0.13301    0.22019    0.53048   1.00
C5       0.13154    0.15636    0.53200   1.00
C5       0.08969    0.15205    0.54775   1.00
H2       0.42627    0.31439    0.30714   1.00
C5       0.42244    0.37836    0.31088   1.00
H2       0.43407    0.33502    0.35677   1.00
C5       0.09653    0.42329    0.46663   1.00
H2       0.15145    0.44142    0.49449   1.00
H2       0.15718    0.41558    0.44707   1.00
C5       0.36456    0.06892    0.69503   1.00
H2       0.30106    0.07783    0.69789   1.00
H2       0.31942    0.05837    0.65063   1.00
H2       0.08105    0.17976    0.56398   1.00
H2       0.06876    0.14707    0.52239   1.00
C5       0.08779    0.11703    0.57583   1.00
H2       0.39356    0.38963    0.29884   1.00
H2       0.43357    0.39919    0.33429   1.00
H2       0.44471    0.37642    0.28626   1.00
H2       0.07837    0.39992    0.48180   1.00
H2       0.08745    0.45330    0.47771   1.00
H2       0.09156    0.42162    0.43379   1.00
H2       0.37654    0.09544    0.71111   1.00
H2       0.35968    0.04412    0.71664   1.00
H2       0.38632    0.05926    0.67181   1.00
H2       0.09330    0.12745    0.60693   1.00
H2       0.05771    0.10299    0.57402   1.00
H2       0.11097    0.09474    0.56734   1.00
C5       0.36712    0.70145    0.63218   1.00
H2       0.36825    0.73000    0.64745   1.00
H2       0.39157    0.70182    0.61090   1.00
C5       0.37276    0.66828    0.66194   1.00
C5       0.41631    0.66239    0.67123   1.00
H2       0.36060    0.64056    0.65015   1.00
O3       0.23445    0.68091    0.48000   1.00
C4       0.24986    0.75040    0.52100   1.00
C3c      0.28408    0.74340    0.54243   1.00
H1       0.31119    0.73796    0.52725   1.00
C3d      0.21496    0.75797    0.54135   1.00
C3       0.28385    0.74272    0.58354   1.00
O2       0.31919    0.74044    0.60248   1.00
C3       0.21447    0.75658    0.58227   1.00
H1       0.18674    0.76119    0.59657   1.00
C2       0.24872    0.74912    0.60439   1.00
C5       0.19430    0.67175    0.47879   1.00
H2       0.18357    0.66749    0.44838   1.00
H2       0.17650    0.69523    0.49266   1.00
C5       0.18844    0.63383    0.50129   1.00
H2       0.20017    0.63774    0.53137   1.00
H2       0.20605    0.61052    0.48698   1.00
C5       0.14502    0.62238    0.50262   1.00
H2       0.13305    0.61869    0.47268   1.00
H2       0.12762    0.64500    0.51811   1.00
C5       0.14005    0.58343    0.52445   1.00
C5       0.17479    0.80154    0.51105   1.00
C5       0.32816    0.70102    0.61070   1.00
H2       0.19820    0.81145    0.49088   1.00
H2       0.17452    0.82104    0.53712   1.00
H2       0.33073    0.68410    0.58300   1.00
H2       0.30529    0.68653    0.62895   1.00
H2       0.35819    0.67522    0.69030   1.00
H2       0.15174    0.84487    0.44247   1.00
H2       0.13754    0.86880    0.48763   1.00
C2       0.24780    0.74847    0.39605   1.00
C3       0.25764    0.78316    0.41597   1.00
O2       0.25709    0.81852    0.39674   1.00
C3       0.24067    0.71439    0.41826   1.00
H1       0.23407    0.68714    0.40385   1.00
C3a      0.25912    0.78333    0.45713   1.00
H1       0.26450    0.81062    0.47202   1.00
C3b      0.24095    0.71496    0.45922   1.00
C4       0.25014    0.74960    0.47900   1.00
O3       0.17994    0.76209    0.52167   1.00
C5       0.29542    0.83014    0.38720   1.00
H2       0.31384    0.83322    0.41391   1.00
C5       0.29239    0.86953    0.36674   1.00
H2       0.30949    0.80863    0.36726   1.00
H2       0.28857    0.89258    0.38932   1.00
H2       0.26511    0.86924    0.34907   1.00
C5       0.32794    0.87859    0.34082   1.00
H2       0.35514    0.87571    0.35824   1.00
C5       0.32556    0.92039    0.32453   1.00
H2       0.32931    0.85859    0.31507   1.00
C5       0.13564    0.80479    0.49017   1.00
H2       0.11193    0.80144    0.51215   1.00
H2       0.13301    0.77981    0.46952   1.00
C5       0.13154    0.84364    0.46800   1.00
C5       0.08969    0.84795    0.45225   1.00
H2       0.42627    0.68561    0.69286   1.00
C5       0.42244    0.62164    0.68912   1.00
H2       0.43407    0.66498    0.64323   1.00
C5       0.09653    0.57671    0.53337   1.00
H2       0.15145    0.55858    0.50551   1.00
H2       0.15718    0.58442    0.55293   1.00
C5       0.36456    0.93108    0.30497   1.00
H2       0.30106    0.92217    0.30211   1.00
H2       0.31942    0.94163    0.34937   1.00
H2       0.08105    0.82024    0.43602   1.00
H2       0.06876    0.85293    0.47761   1.00
C5       0.08779    0.88297    0.42417   1.00
H2       0.39356    0.61037    0.70116   1.00
H2       0.43357    0.60081    0.66571   1.00
H2       0.44471    0.62358    0.71374   1.00
H2       0.07837    0.60008    0.51820   1.00
H2       0.08745    0.54670    0.52229   1.00
H2       0.09156    0.57838    0.56621   1.00
H2       0.37654    0.90456    0.28889   1.00
H2       0.35968    0.95588    0.28336   1.00
H2       0.38632    0.94074    0.32819   1.00
H2       0.09330    0.87255    0.39307   1.00
H2       0.05771    0.89701    0.42598   1.00
H2       0.11097    0.90526    0.43266   1.00
C5       0.20145    1.13218    0.36712   1.00
H2       0.23000    1.14745    0.36825   1.00
H2       0.20182    1.11090    0.39157   1.00
C5       0.16828    1.16194    0.37276   1.00
C5       0.16239    1.17123    0.41631   1.00
H2       0.14056    1.15015    0.36060   1.00
O3       0.18091    0.98000    0.23445   1.00
C4       0.25040    1.02100    0.24986   1.00
C3c      0.24340    1.04243    0.28408   1.00
H1       0.23796    1.02725    0.31119   1.00
C3d      0.25797    1.04135    0.21496   1.00
C3       0.24272    1.08354    0.28385   1.00
O2       0.24044    1.10248    0.31919   1.00
C3       0.25658    1.08227    0.21447   1.00
H1       0.26119    1.09657    0.18674   1.00
C2       0.24912    1.10439    0.24872   1.00
C5       0.17175    0.97879    0.19430   1.00
H2       0.16749    0.94838    0.18357   1.00
H2       0.19523    0.99266    0.17650   1.00
C5       0.13383    1.00129    0.18844   1.00
H2       0.13774    1.03137    0.20017   1.00
H2       0.11052    0.98698    0.20605   1.00
C5       0.12238    1.00262    0.14502   1.00
H2       0.11869    0.97268    0.13305   1.00
H2       0.14500    1.01811    0.12762   1.00
C5       0.08343    1.02445    0.14005   1.00
C5       0.30154    1.01105    0.17479   1.00
C5       0.20102    1.11070    0.32816   1.00
H2       0.31145    0.99088    0.19820   1.00
H2       0.32104    1.03712    0.17452   1.00
H2       0.18410    1.08300    0.33073   1.00
H2       0.18653    1.12895    0.30529   1.00
H2       0.17522    1.19030    0.35819   1.00
H2       0.34487    0.94247    0.15174   1.00
H2       0.36880    0.98763    0.13754   1.00
C2       0.24847    0.89605    0.24780   1.00
C3       0.28316    0.91597    0.25764   1.00
O2       0.31852    0.89674    0.25709   1.00
C3       0.21439    0.91826    0.24067   1.00
H1       0.18714    0.90385    0.23407   1.00
C3a      0.28333    0.95713    0.25912   1.00
H1       0.31062    0.97202    0.26450   1.00
C3b      0.21496    0.95922    0.24095   1.00
C4       0.24960    0.97900    0.25014   1.00
O3       0.26209    1.02167    0.17994   1.00
C5       0.33014    0.88720    0.29542   1.00
H2       0.33322    0.91391    0.31384   1.00
C5       0.36953    0.86674    0.29239   1.00
H2       0.30863    0.86726    0.30949   1.00
H2       0.39258    0.88932    0.28857   1.00
H2       0.36924    0.84907    0.26511   1.00
C5       0.37859    0.84082    0.32794   1.00
H2       0.37571    0.85824    0.35514   1.00
C5       0.42039    0.82453    0.32556   1.00
H2       0.35859    0.81507    0.32931   1.00
C5       0.30479    0.99017    0.13564   1.00
H2       0.30144    1.01215    0.11193   1.00
H2       0.27981    0.96952    0.13301   1.00
C5       0.34364    0.96800    0.13154   1.00
C5       0.34795    0.95225    0.08969   1.00
H2       0.18561    1.19286    0.42627   1.00
C5       0.12164    1.18912    0.42244   1.00
H2       0.16498    1.14323    0.43407   1.00
C5       0.07671    1.03337    0.09653   1.00
H2       0.05858    1.00551    0.15145   1.00
H2       0.08442    1.05293    0.15718   1.00
C5       0.43108    0.80497    0.36456   1.00
H2       0.42217    0.80211    0.30106   1.00
H2       0.44163    0.84937    0.31942   1.00
H2       0.32024    0.93602    0.08105   1.00
H2       0.35293    0.97761    0.06876   1.00
C5       0.38297    0.92417    0.08779   1.00
H2       0.11037    1.20116    0.39356   1.00
H2       0.10081    1.16571    0.43357   1.00
H2       0.12358    1.21374    0.44471   1.00
H2       0.10008    1.01820    0.07837   1.00
H2       0.04670    1.02229    0.08745   1.00
H2       0.07838    1.06621    0.09156   1.00
H2       0.40456    0.78889    0.37654   1.00
H2       0.45588    0.78336    0.35968   1.00
H2       0.44074    0.82819    0.38632   1.00
H2       0.37255    0.89307    0.09330   1.00
H2       0.39701    0.92598    0.05771   1.00
H2       0.40526    0.93266    0.11097   1.00
C5       -0.13218   0.86712    0.29855   1.00
H2       -0.14745   0.86825    0.27000   1.00
H2       -0.11090   0.89157    0.29818   1.00
C5       -0.16194   0.87276    0.33172   1.00
C5       -0.17123   0.91631    0.33761   1.00
H2       -0.15015   0.86060    0.35944   1.00
O3       0.02000    0.73445    0.31909   1.00
C4       -0.02100   0.74986    0.24960   1.00
C3c      -0.04243   0.78408    0.25660   1.00
H1       -0.02725   0.81119    0.26204   1.00
C3d      -0.04135   0.71496    0.24203   1.00
C3       -0.08354   0.78385    0.25728   1.00
O2       -0.10248   0.81919    0.25956   1.00
C3       -0.08227   0.71447    0.24342   1.00
H1       -0.09657   0.68674    0.23881   1.00
C2       -0.10439   0.74872    0.25088   1.00
C5       0.02121    0.69430    0.32825   1.00
H2       0.05162    0.68357    0.33251   1.00
H2       0.00734    0.67650    0.30477   1.00
C5       -0.00129   0.68844    0.36617   1.00
H2       -0.03137   0.70017    0.36226   1.00
H2       0.01302    0.70605    0.38948   1.00
C5       -0.00262   0.64502    0.37762   1.00
H2       0.02732    0.63305    0.38131   1.00
H2       -0.01811   0.62762    0.35500   1.00
C5       -0.02445   0.64005    0.41657   1.00
C5       -0.01105   0.67479    0.19846   1.00
C5       -0.11070   0.82816    0.29898   1.00
H2       0.00912    0.69820    0.18855   1.00
H2       -0.03712   0.67452    0.17896   1.00
H2       -0.08300   0.83073    0.31590   1.00
H2       -0.12895   0.80529    0.31347   1.00
H2       -0.19030   0.85819    0.32478   1.00
H2       0.05753    0.65174    0.15513   1.00
H2       0.01237    0.63754    0.13120   1.00
C2       0.10395    0.74780    0.25153   1.00
C3       0.08403    0.75764    0.21684   1.00
O2       0.10326    0.75709    0.18148   1.00
C3       0.08174    0.74067    0.28561   1.00
H1       0.09615    0.73407    0.31286   1.00
C3a      0.04287    0.75912    0.21667   1.00
H1       0.02798    0.76450    0.18938   1.00
C3b      0.04078    0.74095    0.28504   1.00
C4       0.02100    0.75014    0.25040   1.00
O3       -0.02167   0.67994    0.23791   1.00
C5       0.11280    0.79542    0.16986   1.00
H2       0.08609    0.81384    0.16678   1.00
C5       0.13326    0.79239    0.13047   1.00
H2       0.13274    0.80949    0.19137   1.00
H2       0.11068    0.78857    0.10742   1.00
H2       0.15093    0.76511    0.13076   1.00
C5       0.15918    0.82794    0.12141   1.00
H2       0.14176    0.85514    0.12429   1.00
C5       0.17547    0.82556    0.07961   1.00
H2       0.18493    0.82931    0.14141   1.00
C5       0.00983    0.63564    0.19521   1.00
H2       -0.01215   0.61193    0.19856   1.00
H2       0.03048    0.63301    0.22019   1.00
C5       0.03200    0.63154    0.15636   1.00
C5       0.04775    0.58969    0.15205   1.00
H2       -0.19286   0.92627    0.31439   1.00
C5       -0.18912   0.92244    0.37836   1.00
H2       -0.14323   0.93407    0.33502   1.00
C5       -0.03337   0.59653    0.42329   1.00
H2       -0.00551   0.65145    0.44142   1.00
H2       -0.05293   0.65718    0.41558   1.00
C5       0.19503    0.86456    0.06892   1.00
H2       0.19789    0.80106    0.07783   1.00
H2       0.15063    0.81942    0.05837   1.00
H2       0.06398    0.58105    0.17976   1.00
H2       0.02239    0.56876    0.14707   1.00
C5       0.07583    0.58779    0.11703   1.00
H2       -0.20116   0.89356    0.38963   1.00
H2       -0.16571   0.93357    0.39919   1.00
H2       -0.21374   0.94471    0.37642   1.00
H2       -0.01820   0.57837    0.39992   1.00
H2       -0.02229   0.58745    0.45330   1.00
H2       -0.06621   0.59156    0.42162   1.00
H2       0.21111    0.87654    0.09544   1.00
H2       0.21664    0.85968    0.04412   1.00
H2       0.17181    0.88632    0.05926   1.00
H2       0.10693    0.59330    0.12745   1.00
H2       0.07402    0.55771    0.10299   1.00
H2       0.06734    0.61097    0.09474   1.00
C5       0.63218    0.86712    0.20145   1.00
H2       0.64745    0.86825    0.23000   1.00
H2       0.61090    0.89157    0.20182   1.00
C5       0.66194    0.87276    0.16828   1.00
C5       0.67123    0.91631    0.16239   1.00
H2       0.65015    0.86060    0.14056   1.00
O3       0.48000    0.73445    0.18091   1.00
C4       0.52100    0.74986    0.25040   1.00
C3c      0.54243    0.78408    0.24340   1.00
H1       0.52725    0.81119    0.23796   1.00
C3d      0.54135    0.71496    0.25797   1.00
C3       0.58354    0.78385    0.24272   1.00
O2       0.60248    0.81919    0.24044   1.00
C3       0.58227    0.71447    0.25658   1.00
H1       0.59657    0.68674    0.26119   1.00
C2       0.60439    0.74872    0.24912   1.00
C5       0.47879    0.69430    0.17175   1.00
H2       0.44838    0.68357    0.16749   1.00
H2       0.49266    0.67650    0.19523   1.00
C5       0.50129    0.68844    0.13383   1.00
H2       0.53137    0.70017    0.13774   1.00
H2       0.48698    0.70605    0.11052   1.00
C5       0.50262    0.64502    0.12238   1.00
H2       0.47268    0.63305    0.11869   1.00
H2       0.51811    0.62762    0.14500   1.00
C5       0.52445    0.64005    0.08343   1.00
C5       0.51105    0.67479    0.30154   1.00
C5       0.61070    0.82816    0.20102   1.00
H2       0.49088    0.69820    0.31145   1.00
H2       0.53712    0.67452    0.32104   1.00
H2       0.58300    0.83073    0.18410   1.00
H2       0.62895    0.80529    0.18653   1.00
H2       0.69030    0.85819    0.17522   1.00
H2       0.44247    0.65174    0.34487   1.00
H2       0.48763    0.63754    0.36880   1.00
C2       0.39605    0.74780    0.24847   1.00
C3       0.41597    0.75764    0.28316   1.00
O2       0.39674    0.75709    0.31852   1.00
C3       0.41826    0.74067    0.21439   1.00
H1       0.40385    0.73407    0.18714   1.00
C3a      0.45713    0.75912    0.28333   1.00
H1       0.47202    0.76450    0.31062   1.00
C3b      0.45922    0.74095    0.21496   1.00
C4       0.47900    0.75014    0.24960   1.00
O3       0.52167    0.67994    0.26209   1.00
C5       0.38720    0.79542    0.33014   1.00
H2       0.41391    0.81384    0.33322   1.00
C5       0.36674    0.79239    0.36953   1.00
H2       0.36726    0.80949    0.30863   1.00
H2       0.38932    0.78857    0.39258   1.00
H2       0.34907    0.76511    0.36924   1.00
C5       0.34082    0.82794    0.37859   1.00
H2       0.35824    0.85514    0.37571   1.00
C5       0.32453    0.82556    0.42039   1.00
H2       0.31507    0.82931    0.35859   1.00
C5       0.49017    0.63564    0.30479   1.00
H2       0.51215    0.61193    0.30144   1.00
H2       0.46952    0.63301    0.27981   1.00
C5       0.46800    0.63154    0.34364   1.00
C5       0.45225    0.58969    0.34795   1.00
H2       0.69286    0.92627    0.18561   1.00
C5       0.68912    0.92244    0.12164   1.00
H2       0.64323    0.93407    0.16498   1.00
C5       0.53337    0.59653    0.07671   1.00
H2       0.50551    0.65145    0.05858   1.00
H2       0.55293    0.65718    0.08442   1.00
C5       0.30497    0.86456    0.43108   1.00
H2       0.30211    0.80106    0.42217   1.00
H2       0.34937    0.81942    0.44163   1.00
H2       0.43602    0.58105    0.32024   1.00
H2       0.47761    0.56876    0.35293   1.00
C5       0.42417    0.58779    0.38297   1.00
H2       0.70116    0.89356    0.11037   1.00
H2       0.66571    0.93357    0.10081   1.00
H2       0.71374    0.94471    0.12358   1.00
H2       0.51820    0.57837    0.10008   1.00
H2       0.52229    0.58745    0.04670   1.00
H2       0.56621    0.59156    0.07838   1.00
H2       0.28889    0.87654    0.40456   1.00
H2       0.28336    0.85968    0.45588   1.00
H2       0.32819    0.88632    0.44074   1.00
H2       0.39307    0.59330    0.37255   1.00
H2       0.42598    0.55771    0.39701   1.00
H2       0.43266    0.61097    0.40526   1.00
C5       0.29855    0.36782    0.36712   1.00
H2       0.27000    0.35255    0.36825   1.00
H2       0.29818    0.38910    0.39157   1.00
C5       0.33172    0.33806    0.37276   1.00
C5       0.33761    0.32877    0.41631   1.00
H2       0.35944    0.34985    0.36060   1.00
O3       0.31909    0.52000    0.23445   1.00
C4       0.24960    0.47900    0.24986   1.00
C3c      0.25660    0.45757    0.28408   1.00
H1       0.26204    0.47275    0.31119   1.00
C3d      0.24203    0.45865    0.21496   1.00
C3       0.25728    0.41646    0.28385   1.00
O2       0.25956    0.39752    0.31919   1.00
C3       0.24342    0.41773    0.21447   1.00
H1       0.23881    0.40343    0.18674   1.00
C2       0.25088    0.39561    0.24872   1.00
C5       0.32825    0.52121    0.19430   1.00
H2       0.33251    0.55162    0.18357   1.00
H2       0.30477    0.50734    0.17650   1.00
C5       0.36617    0.49871    0.18844   1.00
H2       0.36226    0.46863    0.20017   1.00
H2       0.38948    0.51302    0.20605   1.00
C5       0.37762    0.49738    0.14502   1.00
H2       0.38131    0.52732    0.13305   1.00
H2       0.35500    0.48189    0.12762   1.00
C5       0.41657    0.47555    0.14005   1.00
C5       0.19846    0.48895    0.17479   1.00
C5       0.29898    0.38930    0.32816   1.00
H2       0.18855    0.50912    0.19820   1.00
H2       0.17896    0.46288    0.17452   1.00
H2       0.31590    0.41700    0.33073   1.00
H2       0.31347    0.37105    0.30529   1.00
H2       0.32478    0.30970    0.35819   1.00
H2       0.15513    0.55753    0.15174   1.00
H2       0.13120    0.51237    0.13754   1.00
C2       0.25153    0.60395    0.24780   1.00
C3       0.21684    0.58403    0.25764   1.00
O2       0.18148    0.60326    0.25709   1.00
C3       0.28561    0.58174    0.24067   1.00
H1       0.31286    0.59615    0.23407   1.00
C3a      0.21667    0.54287    0.25912   1.00
H1       0.18938    0.52798    0.26450   1.00
C3b      0.28504    0.54078    0.24095   1.00
C4       0.25040    0.52100    0.25014   1.00
O3       0.23791    0.47833    0.17994   1.00
C5       0.16986    0.61280    0.29542   1.00
H2       0.16678    0.58609    0.31384   1.00
C5       0.13047    0.63326    0.29239   1.00
H2       0.19137    0.63274    0.30949   1.00
H2       0.10742    0.61068    0.28857   1.00
H2       0.13076    0.65093    0.26511   1.00
C5       0.12141    0.65918    0.32794   1.00
H2       0.12429    0.64176    0.35514   1.00
C5       0.07961    0.67547    0.32556   1.00
H2       0.14141    0.68493    0.32931   1.00
C5       0.19521    0.50983    0.13564   1.00
H2       0.19856    0.48785    0.11193   1.00
H2       0.22019    0.53048    0.13301   1.00
C5       0.15636    0.53200    0.13154   1.00
C5       0.15205    0.54775    0.08969   1.00
H2       0.31439    0.30714    0.42627   1.00
C5       0.37836    0.31088    0.42244   1.00
H2       0.33502    0.35677    0.43407   1.00
C5       0.42329    0.46663    0.09653   1.00
H2       0.44142    0.49449    0.15145   1.00
H2       0.41558    0.44707    0.15718   1.00
C5       0.06892    0.69503    0.36456   1.00
H2       0.07783    0.69789    0.30106   1.00
H2       0.05837    0.65063    0.31942   1.00
H2       0.17976    0.56398    0.08105   1.00
H2       0.14707    0.52239    0.06876   1.00
C5       0.11703    0.57583    0.08779   1.00
H2       0.38963    0.29884    0.39356   1.00
H2       0.39919    0.33429    0.43357   1.00
H2       0.37642    0.28626    0.44471   1.00
H2       0.39992    0.48180    0.07837   1.00
H2       0.45330    0.47771    0.08745   1.00
H2       0.42162    0.43379    0.09156   1.00
H2       0.09544    0.71111    0.37654   1.00
H2       0.04412    0.71664    0.35968   1.00
H2       0.05926    0.67181    0.38632   1.00
H2       0.12745    0.60693    0.09330   1.00
H2       0.10299    0.57402    0.05771   1.00
H2       0.09474    0.56734    0.11097   1.00
C5       0.36712    0.79855    -0.13218   1.00
H2       0.36825    0.77000    -0.14745   1.00
H2       0.39157    0.79818    -0.11090   1.00
C5       0.37276    0.83172    -0.16194   1.00
C5       0.41631    0.83761    -0.17123   1.00
H2       0.36060    0.85944    -0.15015   1.00
O3       0.23445    0.81909    0.02000   1.00
C4       0.24986    0.74960    -0.02100   1.00
C3c      0.28408    0.75660    -0.04243   1.00
H1       0.31119    0.76204    -0.02725   1.00
C3d      0.21496    0.74203    -0.04135   1.00
C3       0.28385    0.75728    -0.08354   1.00
O2       0.31919    0.75956    -0.10248   1.00
C3       0.21447    0.74342    -0.08227   1.00
H1       0.18674    0.73881    -0.09657   1.00
C2       0.24872    0.75088    -0.10439   1.00
C5       0.19430    0.82825    0.02121   1.00
H2       0.18357    0.83251    0.05162   1.00
H2       0.17650    0.80477    0.00734   1.00
C5       0.18844    0.86617    -0.00129   1.00
H2       0.20017    0.86226    -0.03137   1.00
H2       0.20605    0.88948    0.01302   1.00
C5       0.14502    0.87762    -0.00262   1.00
H2       0.13305    0.88131    0.02732   1.00
H2       0.12762    0.85500    -0.01811   1.00
C5       0.14005    0.91657    -0.02445   1.00
C5       0.17479    0.69846    -0.01105   1.00
C5       0.32816    0.79898    -0.11070   1.00
H2       0.19820    0.68855    0.00912   1.00
H2       0.17452    0.67896    -0.03712   1.00
H2       0.33073    0.81590    -0.08300   1.00
H2       0.30529    0.81347    -0.12895   1.00
H2       0.35819    0.82478    -0.19030   1.00
H2       0.15174    0.65513    0.05753   1.00
H2       0.13754    0.63120    0.01237   1.00
C2       0.24780    0.75153    0.10395   1.00
C3       0.25764    0.71684    0.08403   1.00
O2       0.25709    0.68148    0.10326   1.00
C3       0.24067    0.78561    0.08174   1.00
H1       0.23407    0.81286    0.09615   1.00
C3a      0.25912    0.71667    0.04287   1.00
H1       0.26450    0.68938    0.02798   1.00
C3b      0.24095    0.78504    0.04078   1.00
C4       0.25014    0.75040    0.02100   1.00
O3       0.17994    0.73791    -0.02167   1.00
C5       0.29542    0.66986    0.11280   1.00
H2       0.31384    0.66678    0.08609   1.00
C5       0.29239    0.63047    0.13326   1.00
H2       0.30949    0.69137    0.13274   1.00
H2       0.28857    0.60742    0.11068   1.00
H2       0.26511    0.63076    0.15093   1.00
C5       0.32794    0.62141    0.15918   1.00
H2       0.35514    0.62429    0.14176   1.00
C5       0.32556    0.57961    0.17547   1.00
H2       0.32931    0.64141    0.18493   1.00
C5       0.13564    0.69521    0.00983   1.00
H2       0.11193    0.69856    -0.01215   1.00
H2       0.13301    0.72019    0.03048   1.00
C5       0.13154    0.65636    0.03200   1.00
C5       0.08969    0.65205    0.04775   1.00
H2       0.42627    0.81439    -0.19286   1.00
C5       0.42244    0.87836    -0.18912   1.00
H2       0.43407    0.83502    -0.14323   1.00
C5       0.09653    0.92329    -0.03337   1.00
H2       0.15145    0.94142    -0.00551   1.00
H2       0.15718    0.91558    -0.05293   1.00
C5       0.36456    0.56892    0.19503   1.00
H2       0.30106    0.57783    0.19789   1.00
H2       0.31942    0.55837    0.15063   1.00
H2       0.08105    0.67976    0.06398   1.00
H2       0.06876    0.64707    0.02239   1.00
C5       0.08779    0.61703    0.07583   1.00
H2       0.39356    0.88963    -0.20116   1.00
H2       0.43357    0.89919    -0.16571   1.00
H2       0.44471    0.87642    -0.21374   1.00
H2       0.07837    0.89992    -0.01820   1.00
H2       0.08745    0.95330    -0.02229   1.00
H2       0.09156    0.92162    -0.06621   1.00
H2       0.37654    0.59544    0.21111   1.00
H2       0.35968    0.54412    0.21664   1.00
H2       0.38632    0.55926    0.17181   1.00
H2       0.09330    0.62745    0.10693   1.00
H2       0.05771    0.60299    0.07402   1.00
H2       0.11097    0.59474    0.06734   1.00
C5       0.86712    0.20145    0.63218   1.00
H2       0.86825    0.23000    0.64745   1.00
H2       0.89157    0.20182    0.61090   1.00
C5       0.87276    0.16828    0.66194   1.00
C5       0.91631    0.16239    0.67123   1.00
H2       0.86060    0.14056    0.65015   1.00
O3       0.73445    0.18091    0.48000   1.00
C4       0.74986    0.25040    0.52100   1.00
C3c      0.78408    0.24340    0.54243   1.00
H1       0.81119    0.23796    0.52725   1.00
C3d      0.71496    0.25797    0.54135   1.00
C3       0.78385    0.24272    0.58354   1.00
O2       0.81919    0.24044    0.60248   1.00
C3       0.71447    0.25658    0.58227   1.00
H1       0.68674    0.26119    0.59657   1.00
C2       0.74872    0.24912    0.60439   1.00
C5       0.69430    0.17175    0.47879   1.00
H2       0.68357    0.16749    0.44838   1.00
H2       0.67650    0.19523    0.49266   1.00
C5       0.68844    0.13383    0.50129   1.00
H2       0.70017    0.13774    0.53137   1.00
H2       0.70605    0.11052    0.48698   1.00
C5       0.64502    0.12238    0.50262   1.00
H2       0.63305    0.11869    0.47268   1.00
H2       0.62762    0.14500    0.51811   1.00
C5       0.64005    0.08343    0.52445   1.00
C5       0.67479    0.30154    0.51105   1.00
C5       0.82816    0.20102    0.61070   1.00
H2       0.69820    0.31145    0.49088   1.00
H2       0.67452    0.32104    0.53712   1.00
H2       0.83073    0.18410    0.58300   1.00
H2       0.80529    0.18653    0.62895   1.00
H2       0.85819    0.17522    0.69030   1.00
H2       0.65174    0.34487    0.44247   1.00
H2       0.63754    0.36880    0.48763   1.00
C2       0.74780    0.24847    0.39605   1.00
C3       0.75764    0.28316    0.41597   1.00
O2       0.75709    0.31852    0.39674   1.00
C3       0.74067    0.21439    0.41826   1.00
H1       0.73407    0.18714    0.40385   1.00
C3a      0.75912    0.28333    0.45713   1.00
H1       0.76450    0.31062    0.47202   1.00
C3b      0.74095    0.21496    0.45922   1.00
C4       0.75014    0.24960    0.47900   1.00
O3       0.67994    0.26209    0.52167   1.00
C5       0.79542    0.33014    0.38720   1.00
H2       0.81384    0.33322    0.41391   1.00
C5       0.79239    0.36953    0.36674   1.00
H2       0.80949    0.30863    0.36726   1.00
H2       0.78857    0.39258    0.38932   1.00
H2       0.76511    0.36924    0.34907   1.00
C5       0.82794    0.37859    0.34082   1.00
H2       0.85514    0.37571    0.35824   1.00
C5       0.82556    0.42039    0.32453   1.00
H2       0.82931    0.35859    0.31507   1.00
C5       0.63564    0.30479    0.49017   1.00
H2       0.61193    0.30144    0.51215   1.00
H2       0.63301    0.27981    0.46952   1.00
C5       0.63154    0.34364    0.46800   1.00
C5       0.58969    0.34795    0.45225   1.00
H2       0.92627    0.18561    0.69286   1.00
C5       0.92244    0.12164    0.68912   1.00
H2       0.93407    0.16498    0.64323   1.00
C5       0.59653    0.07671    0.53337   1.00
H2       0.65145    0.05858    0.50551   1.00
H2       0.65718    0.08442    0.55293   1.00
C5       0.86456    0.43108    0.30497   1.00
H2       0.80106    0.42217    0.30211   1.00
H2       0.81942    0.44163    0.34937   1.00
H2       0.58105    0.32024    0.43602   1.00
H2       0.56876    0.35293    0.47761   1.00
C5       0.58779    0.38297    0.42417   1.00
H2       0.89356    0.11037    0.70116   1.00
H2       0.93357    0.10081    0.66571   1.00
H2       0.94471    0.12358    0.71374   1.00
H2       0.57837    0.10008    0.51820   1.00
H2       0.58745    0.04670    0.52229   1.00
H2       0.59156    0.07838    0.56621   1.00
H2       0.87654    0.40456    0.28889   1.00
H2       0.85968    0.45588    0.28336   1.00
H2       0.88632    0.44074    0.32819   1.00
H2       0.59330    0.37255    0.39307   1.00
H2       0.55771    0.39701    0.42598   1.00
H2       0.61097    0.40526    0.43266   1.00
C5       0.70145    0.63218    0.36712   1.00
H2       0.73000    0.64745    0.36825   1.00
H2       0.70182    0.61090    0.39157   1.00
C5       0.66828    0.66194    0.37276   1.00
C5       0.66239    0.67123    0.41631   1.00
H2       0.64056    0.65015    0.36060   1.00
O3       0.68091    0.48000    0.23445   1.00
C4       0.75040    0.52100    0.24986   1.00
C3c      0.74340    0.54243    0.28408   1.00
H1       0.73796    0.52725    0.31119   1.00
C3d      0.75797    0.54135    0.21496   1.00
C3       0.74272    0.58354    0.28385   1.00
O2       0.74044    0.60248    0.31919   1.00
C3       0.75658    0.58227    0.21447   1.00
H1       0.76119    0.59657    0.18674   1.00
C2       0.74912    0.60439    0.24872   1.00
C5       0.67175    0.47879    0.19430   1.00
H2       0.66749    0.44838    0.18357   1.00
H2       0.69523    0.49266    0.17650   1.00
C5       0.63383    0.50129    0.18844   1.00
H2       0.63774    0.53137    0.20017   1.00
H2       0.61052    0.48698    0.20605   1.00
C5       0.62238    0.50262    0.14502   1.00
H2       0.61869    0.47268    0.13305   1.00
H2       0.64500    0.51811    0.12762   1.00
C5       0.58343    0.52445    0.14005   1.00
C5       0.80154    0.51105    0.17479   1.00
C5       0.70102    0.61070    0.32816   1.00
H2       0.81145    0.49088    0.19820   1.00
H2       0.82104    0.53712    0.17452   1.00
H2       0.68410    0.58300    0.33073   1.00
H2       0.68653    0.62895    0.30529   1.00
H2       0.67522    0.69030    0.35819   1.00
H2       0.84487    0.44247    0.15174   1.00
H2       0.86880    0.48763    0.13754   1.00
C2       0.74847    0.39605    0.24780   1.00
C3       0.78316    0.41597    0.25764   1.00
O2       0.81852    0.39674    0.25709   1.00
C3       0.71439    0.41826    0.24067   1.00
H1       0.68714    0.40385    0.23407   1.00
C3a      0.78333    0.45713    0.25912   1.00
H1       0.81062    0.47202    0.26450   1.00
C3b      0.71496    0.45922    0.24095   1.00
C4       0.74960    0.47900    0.25014   1.00
O3       0.76209    0.52167    0.17994   1.00
C5       0.83014    0.38720    0.29542   1.00
H2       0.83322    0.41391    0.31384   1.00
C5       0.86953    0.36674    0.29239   1.00
H2       0.80863    0.36726    0.30949   1.00
H2       0.89258    0.38932    0.28857   1.00
H2       0.86924    0.34907    0.26511   1.00
C5       0.87859    0.34082    0.32794   1.00
H2       0.87571    0.35824    0.35514   1.00
C5       0.92039    0.32453    0.32556   1.00
H2       0.85859    0.31507    0.32931   1.00
C5       0.80479    0.49017    0.13564   1.00
H2       0.80144    0.51215    0.11193   1.00
H2       0.77981    0.46952    0.13301   1.00
C5       0.84364    0.46800    0.13154   1.00
C5       0.84795    0.45225    0.08969   1.00
H2       0.68561    0.69286    0.42627   1.00
C5       0.62164    0.68912    0.42244   1.00
H2       0.66498    0.64323    0.43407   1.00
C5       0.57671    0.53337    0.09653   1.00
H2       0.55858    0.50551    0.15145   1.00
H2       0.58442    0.55293    0.15718   1.00
C5       0.93108    0.30497    0.36456   1.00
H2       0.92217    0.30211    0.30106   1.00
H2       0.94163    0.34937    0.31942   1.00
H2       0.82024    0.43602    0.08105   1.00
H2       0.85293    0.47761    0.06876   1.00
C5       0.88297    0.42417    0.08779   1.00
H2       0.61037    0.70116    0.39356   1.00
H2       0.60081    0.66571    0.43357   1.00
H2       0.62358    0.71374    0.44471   1.00
H2       0.60008    0.51820    0.07837   1.00
H2       0.54670    0.52229    0.08745   1.00
H2       0.57838    0.56621    0.09156   1.00
H2       0.90456    0.28889    0.37654   1.00
H2       0.95588    0.28336    0.35968   1.00
H2       0.94074    0.32819    0.38632   1.00
H2       0.87255    0.39307    0.09330   1.00
H2       0.89701    0.42598    0.05771   1.00
H2       0.90526    0.43266    0.11097   1.00
C5       0.36782    0.36712    0.29855   1.00
H2       0.35255    0.36825    0.27000   1.00
H2       0.38910    0.39157    0.29818   1.00
C5       0.33806    0.37276    0.33172   1.00
C5       0.32877    0.41631    0.33761   1.00
H2       0.34985    0.36060    0.35944   1.00
O3       0.52000    0.23445    0.31909   1.00
C4       0.47900    0.24986    0.24960   1.00
C3c      0.45757    0.28408    0.25660   1.00
H1       0.47275    0.31119    0.26204   1.00
C3d      0.45865    0.21496    0.24203   1.00
C3       0.41646    0.28385    0.25728   1.00
O2       0.39752    0.31919    0.25956   1.00
C3       0.41773    0.21447    0.24342   1.00
H1       0.40343    0.18674    0.23881   1.00
C2       0.39561    0.24872    0.25088   1.00
C5       0.52121    0.19430    0.32825   1.00
H2       0.55162    0.18357    0.33251   1.00
H2       0.50734    0.17650    0.30477   1.00
C5       0.49871    0.18844    0.36617   1.00
H2       0.46863    0.20017    0.36226   1.00
H2       0.51302    0.20605    0.38948   1.00
C5       0.49738    0.14502    0.37762   1.00
H2       0.52732    0.13305    0.38131   1.00
H2       0.48189    0.12762    0.35500   1.00
C5       0.47555    0.14005    0.41657   1.00
C5       0.48895    0.17479    0.19846   1.00
C5       0.38930    0.32816    0.29898   1.00
H2       0.50912    0.19820    0.18855   1.00
H2       0.46288    0.17452    0.17896   1.00
H2       0.41700    0.33073    0.31590   1.00
H2       0.37105    0.30529    0.31347   1.00
H2       0.30970    0.35819    0.32478   1.00
H2       0.55753    0.15174    0.15513   1.00
H2       0.51237    0.13754    0.13120   1.00
C2       0.60395    0.24780    0.25153   1.00
C3       0.58403    0.25764    0.21684   1.00
O2       0.60326    0.25709    0.18148   1.00
C3       0.58174    0.24067    0.28561   1.00
H1       0.59615    0.23407    0.31286   1.00
C3a      0.54287    0.25912    0.21667   1.00
H1       0.52798    0.26450    0.18938   1.00
C3b      0.54078    0.24095    0.28504   1.00
C4       0.52100    0.25014    0.25040   1.00
O3       0.47833    0.17994    0.23791   1.00
C5       0.61280    0.29542    0.16986   1.00
H2       0.58609    0.31384    0.16678   1.00
C5       0.63326    0.29239    0.13047   1.00
H2       0.63274    0.30949    0.19137   1.00
H2       0.61068    0.28857    0.10742   1.00
H2       0.65093    0.26511    0.13076   1.00
C5       0.65918    0.32794    0.12141   1.00
H2       0.64176    0.35514    0.12429   1.00
C5       0.67547    0.32556    0.07961   1.00
H2       0.68493    0.32931    0.14141   1.00
C5       0.50983    0.13564    0.19521   1.00
H2       0.48785    0.11193    0.19856   1.00
H2       0.53048    0.13301    0.22019   1.00
C5       0.53200    0.13154    0.15636   1.00
C5       0.54775    0.08969    0.15205   1.00
H2       0.30714    0.42627    0.31439   1.00
C5       0.31088    0.42244    0.37836   1.00
H2       0.35677    0.43407    0.33502   1.00
C5       0.46663    0.09653    0.42329   1.00
H2       0.49449    0.15145    0.44142   1.00
H2       0.44707    0.15718    0.41558   1.00
C5       0.69503    0.36456    0.06892   1.00
H2       0.69789    0.30106    0.07783   1.00
H2       0.65063    0.31942    0.05837   1.00
H2       0.56398    0.08105    0.17976   1.00
H2       0.52239    0.06876    0.14707   1.00
C5       0.57583    0.08779    0.11703   1.00
H2       0.29884    0.39356    0.38963   1.00
H2       0.33429    0.43357    0.39919   1.00
H2       0.28626    0.44471    0.37642   1.00
H2       0.48180    0.07837    0.39992   1.00
H2       0.47771    0.08745    0.45330   1.00
H2       0.43379    0.09156    0.42162   1.00
H2       0.71111    0.37654    0.09544   1.00
H2       0.71664    0.35968    0.04412   1.00
H2       0.67181    0.38632    0.05926   1.00
H2       0.60693    0.09330    0.12745   1.00
H2       0.57402    0.05771    0.10299   1.00
H2       0.56734    0.11097    0.09474   1.00
C5       1.13218    0.36712    0.20145   1.00
H2       1.14745    0.36825    0.23000   1.00
H2       1.11090    0.39157    0.20182   1.00
C5       1.16194    0.37276    0.16828   1.00
C5       1.17123    0.41631    0.16239   1.00
H2       1.15015    0.36060    0.14056   1.00
O3       0.98000    0.23445    0.18091   1.00
C4       1.02100    0.24986    0.25040   1.00
C3c      1.04243    0.28408    0.24340   1.00
H1       1.02725    0.31119    0.23796   1.00
C3d      1.04135    0.21496    0.25797   1.00
C3       1.08354    0.28385    0.24272   1.00
O2       1.10248    0.31919    0.24044   1.00
C3       1.08227    0.21447    0.25658   1.00
H1       1.09657    0.18674    0.26119   1.00
C2       1.10439    0.24872    0.24912   1.00
C5       0.97879    0.19430    0.17175   1.00
H2       0.94838    0.18357    0.16749   1.00
H2       0.99266    0.17650    0.19523   1.00
C5       1.00129    0.18844    0.13383   1.00
H2       1.03137    0.20017    0.13774   1.00
H2       0.98698    0.20605    0.11052   1.00
C5       1.00262    0.14502    0.12238   1.00
H2       0.97268    0.13305    0.11869   1.00
H2       1.01811    0.12762    0.14500   1.00
C5       1.02445    0.14005    0.08343   1.00
C5       1.01105    0.17479    0.30154   1.00
C5       1.11070    0.32816    0.20102   1.00
H2       0.99088    0.19820    0.31145   1.00
H2       1.03712    0.17452    0.32104   1.00
H2       1.08300    0.33073    0.18410   1.00
H2       1.12895    0.30529    0.18653   1.00
H2       1.19030    0.35819    0.17522   1.00
H2       0.94247    0.15174    0.34487   1.00
H2       0.98763    0.13754    0.36880   1.00
C2       0.89605    0.24780    0.24847   1.00
C3       0.91597    0.25764    0.28316   1.00
O2       0.89674    0.25709    0.31852   1.00
C3       0.91826    0.24067    0.21439   1.00
H1       0.90385    0.23407    0.18714   1.00
C3a      0.95713    0.25912    0.28333   1.00
H1       0.97202    0.26450    0.31062   1.00
C3b      0.95922    0.24095    0.21496   1.00
C4       0.97900    0.25014    0.24960   1.00
O3       1.02167    0.17994    0.26209   1.00
C5       0.88720    0.29542    0.33014   1.00
H2       0.91391    0.31384    0.33322   1.00
C5       0.86674    0.29239    0.36953   1.00
H2       0.86726    0.30949    0.30863   1.00
H2       0.88932    0.28857    0.39258   1.00
H2       0.84907    0.26511    0.36924   1.00
C5       0.84082    0.32794    0.37859   1.00
H2       0.85824    0.35514    0.37571   1.00
C5       0.82453    0.32556    0.42039   1.00
H2       0.81507    0.32931    0.35859   1.00
C5       0.99017    0.13564    0.30479   1.00
H2       1.01215    0.11193    0.30144   1.00
H2       0.96952    0.13301    0.27981   1.00
C5       0.96800    0.13154    0.34364   1.00
C5       0.95225    0.08969    0.34795   1.00
H2       1.19286    0.42627    0.18561   1.00
C5       1.18912    0.42244    0.12164   1.00
H2       1.14323    0.43407    0.16498   1.00
C5       1.03337    0.09653    0.07671   1.00
H2       1.00551    0.15145    0.05858   1.00
H2       1.05293    0.15718    0.08442   1.00
C5       0.80497    0.36456    0.43108   1.00
H2       0.80211    0.30106    0.42217   1.00
H2       0.84937    0.31942    0.44163   1.00
H2       0.93602    0.08105    0.32024   1.00
H2       0.97761    0.06876    0.35293   1.00
C5       0.92417    0.08779    0.38297   1.00
H2       1.20116    0.39356    0.11037   1.00
H2       1.16571    0.43357    0.10081   1.00
H2       1.21374    0.44471    0.12358   1.00
H2       1.01820    0.07837    0.10008   1.00
H2       1.02229    0.08745    0.04670   1.00
H2       1.06621    0.09156    0.07838   1.00
H2       0.78889    0.37654    0.40456   1.00
H2       0.78336    0.35968    0.45588   1.00
H2       0.82819    0.38632    0.44074   1.00
H2       0.89307    0.09330    0.37255   1.00
H2       0.92598    0.05771    0.39701   1.00
H2       0.93266    0.11097    0.40526   1.00
C5       0.79855    -0.13218   0.36712   1.00
H2       0.77000    -0.14745   0.36825   1.00
H2       0.79818    -0.11090   0.39157   1.00
C5       0.83172    -0.16194   0.37276   1.00
C5       0.83761    -0.17123   0.41631   1.00
H2       0.85944    -0.15015   0.36060   1.00
O3       0.81909    0.02000    0.23445   1.00
C4       0.74960    -0.02100   0.24986   1.00
C3c      0.75660    -0.04243   0.28408   1.00
H1       0.76204    -0.02725   0.31119   1.00
C3d      0.74203    -0.04135   0.21496   1.00
C3       0.75728    -0.08354   0.28385   1.00
O2       0.75956    -0.10248   0.31919   1.00
C3       0.74342    -0.08227   0.21447   1.00
H1       0.73881    -0.09657   0.18674   1.00
C2       0.75088    -0.10439   0.24872   1.00
C5       0.82825    0.02121    0.19430   1.00
H2       0.83251    0.05162    0.18357   1.00
H2       0.80477    0.00734    0.17650   1.00
C5       0.86617    -0.00129   0.18844   1.00
H2       0.86226    -0.03137   0.20017   1.00
H2       0.88948    0.01302    0.20605   1.00
C5       0.87762    -0.00262   0.14502   1.00
H2       0.88131    0.02732    0.13305   1.00
H2       0.85500    -0.01811   0.12762   1.00
C5       0.91657    -0.02445   0.14005   1.00
C5       0.69846    -0.01105   0.17479   1.00
C5       0.79898    -0.11070   0.32816   1.00
H2       0.68855    0.00912    0.19820   1.00
H2       0.67896    -0.03712   0.17452   1.00
H2       0.81590    -0.08300   0.33073   1.00
H2       0.81347    -0.12895   0.30529   1.00
H2       0.82478    -0.19030   0.35819   1.00
H2       0.65513    0.05753    0.15174   1.00
H2       0.63120    0.01237    0.13754   1.00
C2       0.75153    0.10395    0.24780   1.00
C3       0.71684    0.08403    0.25764   1.00
O2       0.68148    0.10326    0.25709   1.00
C3       0.78561    0.08174    0.24067   1.00
H1       0.81286    0.09615    0.23407   1.00
C3a      0.71667    0.04287    0.25912   1.00
H1       0.68938    0.02798    0.26450   1.00
C3b      0.78504    0.04078    0.24095   1.00
C4       0.75040    0.02100    0.25014   1.00
O3       0.73791    -0.02167   0.17994   1.00
C5       0.66986    0.11280    0.29542   1.00
H2       0.66678    0.08609    0.31384   1.00
C5       0.63047    0.13326    0.29239   1.00
H2       0.69137    0.13274    0.30949   1.00
H2       0.60742    0.11068    0.28857   1.00
H2       0.63076    0.15093    0.26511   1.00
C5       0.62141    0.15918    0.32794   1.00
H2       0.62429    0.14176    0.35514   1.00
C5       0.57961    0.17547    0.32556   1.00
H2       0.64141    0.18493    0.32931   1.00
C5       0.69521    0.00983    0.13564   1.00
H2       0.69856    -0.01215   0.11193   1.00
H2       0.72019    0.03048    0.13301   1.00
C5       0.65636    0.03200    0.13154   1.00
C5       0.65205    0.04775    0.08969   1.00
H2       0.81439    -0.19286   0.42627   1.00
C5       0.87836    -0.18912   0.42244   1.00
H2       0.83502    -0.14323   0.43407   1.00
C5       0.92329    -0.03337   0.09653   1.00
H2       0.94142    -0.00551   0.15145   1.00
H2       0.91558    -0.05293   0.15718   1.00
C5       0.56892    0.19503    0.36456   1.00
H2       0.57783    0.19789    0.30106   1.00
H2       0.55837    0.15063    0.31942   1.00
H2       0.67976    0.06398    0.08105   1.00
H2       0.64707    0.02239    0.06876   1.00
C5       0.61703    0.07583    0.08779   1.00
H2       0.88963    -0.20116   0.39356   1.00
H2       0.89919    -0.16571   0.43357   1.00
H2       0.87642    -0.21374   0.44471   1.00
H2       0.89992    -0.01820   0.07837   1.00
H2       0.95330    -0.02229   0.08745   1.00
H2       0.92162    -0.06621   0.09156   1.00
H2       0.59544    0.21111    0.37654   1.00
H2       0.54412    0.21664    0.35968   1.00
H2       0.55926    0.17181    0.38632   1.00
H2       0.62745    0.10693    0.09330   1.00
H2       0.60299    0.07402    0.05771   1.00
H2       0.59474    0.06734    0.11097   1.00
C5       0.86712    0.29855    -0.13218   1.00
H2       0.86825    0.27000    -0.14745   1.00
H2       0.89157    0.29818    -0.11090   1.00
C5       0.87276    0.33172    -0.16194   1.00
C5       0.91631    0.33761    -0.17123   1.00
H2       0.86060    0.35944    -0.15015   1.00
O3       0.73445    0.31909    0.02000   1.00
C4       0.74986    0.24960    -0.02100   1.00
C3c      0.78408    0.25660    -0.04243   1.00
H1       0.81119    0.26204    -0.02725   1.00
C3d      0.71496    0.24203    -0.04135   1.00
C3       0.78385    0.25728    -0.08354   1.00
O2       0.81919    0.25956    -0.10248   1.00
C3       0.71447    0.24342    -0.08227   1.00
H1       0.68674    0.23881    -0.09657   1.00
C2       0.74872    0.25088    -0.10439   1.00
C5       0.69430    0.32825    0.02121   1.00
H2       0.68357    0.33251    0.05162   1.00
H2       0.67650    0.30477    0.00734   1.00
C5       0.68844    0.36617    -0.00129   1.00
H2       0.70017    0.36226    -0.03137   1.00
H2       0.70605    0.38948    0.01302   1.00
C5       0.64502    0.37762    -0.00262   1.00
H2       0.63305    0.38131    0.02732   1.00
H2       0.62762    0.35500    -0.01811   1.00
C5       0.64005    0.41657    -0.02445   1.00
C5       0.67479    0.19846    -0.01105   1.00
C5       0.82816    0.29898    -0.11070   1.00
H2       0.69820    0.18855    0.00912   1.00
H2       0.67452    0.17896    -0.03712   1.00
H2       0.83073    0.31590    -0.08300   1.00
H2       0.80529    0.31347    -0.12895   1.00
H2       0.85819    0.32478    -0.19030   1.00
H2       0.65174    0.15513    0.05753   1.00
H2       0.63754    0.13120    0.01237   1.00
C2       0.74780    0.25153    0.10395   1.00
C3       0.75764    0.21684    0.08403   1.00
O2       0.75709    0.18148    0.10326   1.00
C3       0.74067    0.28561    0.08174   1.00
H1       0.73407    0.31286    0.09615   1.00
C3a      0.75912    0.21667    0.04287   1.00
H1       0.76450    0.18938    0.02798   1.00
C3b      0.74095    0.28504    0.04078   1.00
C4       0.75014    0.25040    0.02100   1.00
O3       0.67994    0.23791    -0.02167   1.00
C5       0.79542    0.16986    0.11280   1.00
H2       0.81384    0.16678    0.08609   1.00
C5       0.79239    0.13047    0.13326   1.00
H2       0.80949    0.19137    0.13274   1.00
H2       0.78857    0.10742    0.11068   1.00
H2       0.76511    0.13076    0.15093   1.00
C5       0.82794    0.12141    0.15918   1.00
H2       0.85514    0.12429    0.14176   1.00
C5       0.82556    0.07961    0.17547   1.00
H2       0.82931    0.14141    0.18493   1.00
C5       0.63564    0.19521    0.00983   1.00
H2       0.61193    0.19856    -0.01215   1.00
H2       0.63301    0.22019    0.03048   1.00
C5       0.63154    0.15636    0.03200   1.00
C5       0.58969    0.15205    0.04775   1.00
H2       0.92627    0.31439    -0.19286   1.00
C5       0.92244    0.37836    -0.18912   1.00
H2       0.93407    0.33502    -0.14323   1.00
C5       0.59653    0.42329    -0.03337   1.00
H2       0.65145    0.44142    -0.00551   1.00
H2       0.65718    0.41558    -0.05293   1.00
C5       0.86456    0.06892    0.19503   1.00
H2       0.80106    0.07783    0.19789   1.00
H2       0.81942    0.05837    0.15063   1.00
H2       0.58105    0.17976    0.06398   1.00
H2       0.56876    0.14707    0.02239   1.00
C5       0.58779    0.11703    0.07583   1.00
H2       0.89356    0.38963    -0.20116   1.00
H2       0.93357    0.39919    -0.16571   1.00
H2       0.94471    0.37642    -0.21374   1.00
H2       0.57837    0.39992    -0.01820   1.00
H2       0.58745    0.45330    -0.02229   1.00
H2       0.59156    0.42162    -0.06621   1.00
H2       0.87654    0.09544    0.21111   1.00
H2       0.85968    0.04412    0.21664   1.00
H2       0.88632    0.05926    0.17181   1.00
H2       0.59330    0.12745    0.10693   1.00
H2       0.55771    0.10299    0.07402   1.00
H2       0.61097    0.09474    0.06734   1.00
C5       1.03212    0.86645    1.29718   1.00
H2       1.03325    0.89500    1.31245   1.00
H2       1.05657    0.86682    1.27590   1.00
C5       1.03776    0.83328    1.32694   1.00
C5       1.08131    0.82739    1.33623   1.00
H2       1.02560    0.80556    1.31515   1.00
O3       0.89945    0.84591    1.14500   1.00
C4       0.91486    0.91540    1.18600   1.00
C3c      0.94908    0.90840    1.20743   1.00
H1       0.97619    0.90296    1.19225   1.00
C3d      0.87996    0.92297    1.20635   1.00
C3       0.94885    0.90772    1.24854   1.00
O2       0.98419    0.90544    1.26748   1.00
C3       0.87947    0.92158    1.24727   1.00
H1       0.85174    0.92619    1.26157   1.00
C2       0.91372    0.91412    1.26939   1.00
C5       0.85930    0.83675    1.14379   1.00
H2       0.84857    0.83249    1.11338   1.00
H2       0.84150    0.86023    1.15766   1.00
C5       0.85344    0.79883    1.16629   1.00
H2       0.86517    0.80274    1.19637   1.00
H2       0.87105    0.77552    1.15198   1.00
C5       0.81002    0.78738    1.16762   1.00
H2       0.79805    0.78369    1.13768   1.00
H2       0.79262    0.81000    1.18311   1.00
C5       0.80505    0.74843    1.18945   1.00
C5       0.83979    0.96654    1.17605   1.00
C5       0.99316    0.86602    1.27570   1.00
H2       0.86320    0.97645    1.15588   1.00
H2       0.83952    0.98604    1.20212   1.00
H2       0.99573    0.84910    1.24800   1.00
H2       0.97029    0.85153    1.29395   1.00
H2       1.02319    0.84022    1.35530   1.00
H2       0.81674    1.00987    1.10747   1.00
H2       0.80254    1.03380    1.15263   1.00
C2       0.91280    0.91347    1.06105   1.00
C3       0.92264    0.94816    1.08097   1.00
O2       0.92209    0.98352    1.06174   1.00
C3       0.90567    0.87939    1.08326   1.00
H1       0.89907    0.85214    1.06885   1.00
C3a      0.92412    0.94833    1.12213   1.00
H1       0.92950    0.97562    1.13702   1.00
C3b      0.90595    0.87996    1.12422   1.00
C4       0.91514    0.91460    1.14400   1.00
O3       0.84494    0.92709    1.18667   1.00
C5       0.96042    0.99514    1.05220   1.00
H2       0.97884    0.99822    1.07891   1.00
C5       0.95739    1.03453    1.03174   1.00
H2       0.97449    0.97363    1.03226   1.00
H2       0.95357    1.05758    1.05432   1.00
H2       0.93011    1.03424    1.01407   1.00
C5       0.99294    1.04359    1.00582   1.00
H2       1.02014    1.04071    1.02324   1.00
C5       0.99056    1.08539    0.98953   1.00
H2       0.99431    1.02359    0.98007   1.00
C5       0.80064    0.96979    1.15517   1.00
H2       0.77693    0.96644    1.17715   1.00
H2       0.79801    0.94481    1.13452   1.00
C5       0.79654    1.00864    1.13300   1.00
C5       0.75469    1.01295    1.11725   1.00
H2       1.09127    0.85061    1.35786   1.00
C5       1.08744    0.78664    1.35412   1.00
H2       1.09907    0.82998    1.30823   1.00
C5       0.76153    0.74171    1.19837   1.00
H2       0.81645    0.72358    1.17051   1.00
H2       0.82218    0.74942    1.21793   1.00
C5       1.02956    1.09608    0.96997   1.00
H2       0.96606    1.08717    0.96711   1.00
H2       0.98442    1.10663    1.01437   1.00
H2       0.74605    0.98524    1.10102   1.00
H2       0.73376    1.01793    1.14261   1.00
C5       0.75279    1.04797    1.08917   1.00
H2       1.05856    0.77537    1.36616   1.00
H2       1.09857    0.76581    1.33071   1.00
H2       1.10971    0.78858    1.37874   1.00
H2       0.74337    0.76508    1.18320   1.00
H2       0.75245    0.71170    1.18729   1.00
H2       0.75656    0.74338    1.23121   1.00
H2       1.04154    1.06956    0.95389   1.00
H2       1.02468    1.12088    0.94836   1.00
H2       1.05132    1.10574    0.99319   1.00
H2       0.75830    1.03755    1.05807   1.00
H2       0.72271    1.06201    1.09098   1.00
H2       0.77597    1.07026    1.09766   1.00
C5       0.86645    1.29718    1.03212   1.00
H2       0.89500    1.31245    1.03325   1.00
H2       0.86682    1.27590    1.05657   1.00
C5       0.83328    1.32694    1.03776   1.00
C5       0.82739    1.33623    1.08131   1.00
H2       0.80556    1.31515    1.02560   1.00
O3       0.84591    1.14500    0.89945   1.00
C4       0.91540    1.18600    0.91486   1.00
C3c      0.90840    1.20743    0.94908   1.00
H1       0.90296    1.19225    0.97619   1.00
C3d      0.92297    1.20635    0.87996   1.00
C3       0.90772    1.24854    0.94885   1.00
O2       0.90544    1.26748    0.98419   1.00
C3       0.92158    1.24727    0.87947   1.00
H1       0.92619    1.26157    0.85174   1.00
C2       0.91412    1.26939    0.91372   1.00
C5       0.83675    1.14379    0.85930   1.00
H2       0.83249    1.11338    0.84857   1.00
H2       0.86023    1.15766    0.84150   1.00
C5       0.79883    1.16629    0.85344   1.00
H2       0.80274    1.19637    0.86517   1.00
H2       0.77552    1.15198    0.87105   1.00
C5       0.78738    1.16762    0.81002   1.00
H2       0.78369    1.13768    0.79805   1.00
H2       0.81000    1.18311    0.79262   1.00
C5       0.74843    1.18945    0.80505   1.00
C5       0.96654    1.17605    0.83979   1.00
C5       0.86602    1.27570    0.99316   1.00
H2       0.97645    1.15588    0.86320   1.00
H2       0.98604    1.20212    0.83952   1.00
H2       0.84910    1.24800    0.99573   1.00
H2       0.85153    1.29395    0.97029   1.00
H2       0.84022    1.35530    1.02319   1.00
H2       1.00987    1.10747    0.81674   1.00
H2       1.03380    1.15263    0.80254   1.00
C2       0.91347    1.06105    0.91280   1.00
C3       0.94816    1.08097    0.92264   1.00
O2       0.98352    1.06174    0.92209   1.00
C3       0.87939    1.08326    0.90567   1.00
H1       0.85214    1.06885    0.89907   1.00
C3a      0.94833    1.12213    0.92412   1.00
H1       0.97562    1.13702    0.92950   1.00
C3b      0.87996    1.12422    0.90595   1.00
C4       0.91460    1.14400    0.91514   1.00
O3       0.92709    1.18667    0.84494   1.00
C5       0.99514    1.05220    0.96042   1.00
H2       0.99822    1.07891    0.97884   1.00
C5       1.03453    1.03174    0.95739   1.00
H2       0.97363    1.03226    0.97449   1.00
H2       1.05758    1.05432    0.95357   1.00
H2       1.03424    1.01407    0.93011   1.00
C5       1.04359    1.00582    0.99294   1.00
H2       1.04071    1.02324    1.02014   1.00
C5       1.08539    0.98953    0.99056   1.00
H2       1.02359    0.98007    0.99431   1.00
C5       0.96979    1.15517    0.80064   1.00
H2       0.96644    1.17715    0.77693   1.00
H2       0.94481    1.13452    0.79801   1.00
C5       1.00864    1.13300    0.79654   1.00
C5       1.01295    1.11725    0.75469   1.00
H2       0.85061    1.35786    1.09127   1.00
C5       0.78664    1.35412    1.08744   1.00
H2       0.82998    1.30823    1.09907   1.00
C5       0.74171    1.19837    0.76153   1.00
H2       0.72358    1.17051    0.81645   1.00
H2       0.74942    1.21793    0.82218   1.00
C5       1.09608    0.96997    1.02956   1.00
H2       1.08717    0.96711    0.96606   1.00
H2       1.10663    1.01437    0.98442   1.00
H2       0.98524    1.10102    0.74605   1.00
H2       1.01793    1.14261    0.73376   1.00
C5       1.04797    1.08917    0.75279   1.00
H2       0.77537    1.36616    1.05856   1.00
H2       0.76581    1.33071    1.09857   1.00
H2       0.78858    1.37874    1.10971   1.00
H2       0.76508    1.18320    0.74337   1.00
H2       0.71170    1.18729    0.75245   1.00
H2       0.74338    1.23121    0.75656   1.00
H2       1.06956    0.95389    1.04154   1.00
H2       1.12088    0.94836    1.02468   1.00
H2       1.10574    0.99319    1.05132   1.00
H2       1.03755    1.05807    0.75830   1.00
H2       1.06201    1.09098    0.72271   1.00
H2       1.07026    1.09766    0.77597   1.00
C5       0.53282    1.03212    0.96355   1.00
H2       0.51755    1.03325    0.93500   1.00
H2       0.55410    1.05657    0.96318   1.00
C5       0.50306    1.03776    0.99672   1.00
C5       0.49377    1.08131    1.00261   1.00
H2       0.51485    1.02560    1.02444   1.00
O3       0.68500    0.89945    0.98409   1.00
C4       0.64400    0.91486    0.91460   1.00
C3c      0.62257    0.94908    0.92160   1.00
H1       0.63775    0.97619    0.92704   1.00
C3d      0.62365    0.87996    0.90703   1.00
C3       0.58146    0.94885    0.92228   1.00
O2       0.56252    0.98419    0.92456   1.00
C3       0.58273    0.87947    0.90842   1.00
H1       0.56843    0.85174    0.90381   1.00
C2       0.56061    0.91372    0.91588   1.00
C5       0.68621    0.85930    0.99325   1.00
H2       0.71662    0.84857    0.99751   1.00
H2       0.67234    0.84150    0.96977   1.00
C5       0.66371    0.85344    1.03117   1.00
H2       0.63363    0.86517    1.02726   1.00
H2       0.67802    0.87105    1.05448   1.00
C5       0.66238    0.81002    1.04262   1.00
H2       0.69232    0.79805    1.04631   1.00
H2       0.64689    0.79262    1.02000   1.00
C5       0.64055    0.80505    1.08157   1.00
C5       0.65395    0.83979    0.86346   1.00
C5       0.55430    0.99316    0.96398   1.00
H2       0.67412    0.86320    0.85355   1.00
H2       0.62788    0.83952    0.84396   1.00
H2       0.58200    0.99573    0.98090   1.00
H2       0.53605    0.97029    0.97847   1.00
H2       0.47470    1.02319    0.98978   1.00
H2       0.72253    0.81674    0.82013   1.00
H2       0.67737    0.80254    0.79620   1.00
C2       0.76895    0.91280    0.91653   1.00
C3       0.74903    0.92264    0.88184   1.00
O2       0.76826    0.92209    0.84648   1.00
C3       0.74674    0.90567    0.95061   1.00
H1       0.76115    0.89907    0.97786   1.00
C3a      0.70787    0.92412    0.88167   1.00
H1       0.69298    0.92950    0.85438   1.00
C3b      0.70578    0.90595    0.95004   1.00
C4       0.68600    0.91514    0.91540   1.00
O3       0.64333    0.84494    0.90291   1.00
C5       0.77780    0.96042    0.83486   1.00
H2       0.75109    0.97884    0.83178   1.00
C5       0.79826    0.95739    0.79547   1.00
H2       0.79774    0.97449    0.85637   1.00
H2       0.77568    0.95357    0.77242   1.00
H2       0.81593    0.93011    0.79576   1.00
C5       0.82418    0.99294    0.78641   1.00
H2       0.80676    1.02014    0.78929   1.00
C5       0.84047    0.99056    0.74461   1.00
H2       0.84993    0.99431    0.80641   1.00
C5       0.67483    0.80064    0.86021   1.00
H2       0.65285    0.77693    0.86356   1.00
H2       0.69548    0.79801    0.88519   1.00
C5       0.69700    0.79654    0.82136   1.00
C5       0.71275    0.75469    0.81705   1.00
H2       0.47214    1.09127    0.97939   1.00
C5       0.47588    1.08744    1.04336   1.00
H2       0.52177    1.09907    1.00002   1.00
C5       0.63163    0.76153    1.08829   1.00
H2       0.65949    0.81645    1.10642   1.00
H2       0.61207    0.82218    1.08058   1.00
C5       0.86003    1.02956    0.73392   1.00
H2       0.86289    0.96606    0.74283   1.00
H2       0.81563    0.98442    0.72337   1.00
H2       0.72898    0.74605    0.84476   1.00
H2       0.68739    0.73376    0.81207   1.00
C5       0.74083    0.75279    0.78203   1.00
H2       0.46384    1.05856    1.05463   1.00
H2       0.49929    1.09857    1.06419   1.00
H2       0.45126    1.10971    1.04142   1.00
H2       0.64680    0.74337    1.06492   1.00
H2       0.64271    0.75245    1.11830   1.00
H2       0.59879    0.75656    1.08662   1.00
H2       0.87611    1.04154    0.76044   1.00
H2       0.88164    1.02468    0.70912   1.00
H2       0.83681    1.05132    0.72426   1.00
H2       0.77193    0.75830    0.79245   1.00
H2       0.73902    0.72271    0.76799   1.00
H2       0.73234    0.77597    0.75974   1.00
C5       1.29718    1.03212    0.86645   1.00
H2       1.31245    1.03325    0.89500   1.00
H2       1.27590    1.05657    0.86682   1.00
C5       1.32694    1.03776    0.83328   1.00
C5       1.33623    1.08131    0.82739   1.00
H2       1.31515    1.02560    0.80556   1.00
O3       1.14500    0.89945    0.84591   1.00
C4       1.18600    0.91486    0.91540   1.00
C3c      1.20743    0.94908    0.90840   1.00
H1       1.19225    0.97619    0.90296   1.00
C3d      1.20635    0.87996    0.92297   1.00
C3       1.24854    0.94885    0.90772   1.00
O2       1.26748    0.98419    0.90544   1.00
C3       1.24727    0.87947    0.92158   1.00
H1       1.26157    0.85174    0.92619   1.00
C2       1.26939    0.91372    0.91412   1.00
C5       1.14379    0.85930    0.83675   1.00
H2       1.11338    0.84857    0.83249   1.00
H2       1.15766    0.84150    0.86023   1.00
C5       1.16629    0.85344    0.79883   1.00
H2       1.19637    0.86517    0.80274   1.00
H2       1.15198    0.87105    0.77552   1.00
C5       1.16762    0.81002    0.78738   1.00
H2       1.13768    0.79805    0.78369   1.00
H2       1.18311    0.79262    0.81000   1.00
C5       1.18945    0.80505    0.74843   1.00
C5       1.17605    0.83979    0.96654   1.00
C5       1.27570    0.99316    0.86602   1.00
H2       1.15588    0.86320    0.97645   1.00
H2       1.20212    0.83952    0.98604   1.00
H2       1.24800    0.99573    0.84910   1.00
H2       1.29395    0.97029    0.85153   1.00
H2       1.35530    1.02319    0.84022   1.00
H2       1.10747    0.81674    1.00987   1.00
H2       1.15263    0.80254    1.03380   1.00
C2       1.06105    0.91280    0.91347   1.00
C3       1.08097    0.92264    0.94816   1.00
O2       1.06174    0.92209    0.98352   1.00
C3       1.08326    0.90567    0.87939   1.00
H1       1.06885    0.89907    0.85214   1.00
C3a      1.12213    0.92412    0.94833   1.00
H1       1.13702    0.92950    0.97562   1.00
C3b      1.12422    0.90595    0.87996   1.00
C4       1.14400    0.91514    0.91460   1.00
O3       1.18667    0.84494    0.92709   1.00
C5       1.05220    0.96042    0.99514   1.00
H2       1.07891    0.97884    0.99822   1.00
C5       1.03174    0.95739    1.03453   1.00
H2       1.03226    0.97449    0.97363   1.00
H2       1.05432    0.95357    1.05758   1.00
H2       1.01407    0.93011    1.03424   1.00
C5       1.00582    0.99294    1.04359   1.00
H2       1.02324    1.02014    1.04071   1.00
C5       0.98953    0.99056    1.08539   1.00
H2       0.98007    0.99431    1.02359   1.00
C5       1.15517    0.80064    0.96979   1.00
H2       1.17715    0.77693    0.96644   1.00
H2       1.13452    0.79801    0.94481   1.00
C5       1.13300    0.79654    1.00864   1.00
C5       1.11725    0.75469    1.01295   1.00
H2       1.35786    1.09127    0.85061   1.00
C5       1.35412    1.08744    0.78664   1.00
H2       1.30823    1.09907    0.82998   1.00
C5       1.19837    0.76153    0.74171   1.00
H2       1.17051    0.81645    0.72358   1.00
H2       1.21793    0.82218    0.74942   1.00
C5       0.96997    1.02956    1.09608   1.00
H2       0.96711    0.96606    1.08717   1.00
H2       1.01437    0.98442    1.10663   1.00
H2       1.10102    0.74605    0.98524   1.00
H2       1.14261    0.73376    1.01793   1.00
C5       1.08917    0.75279    1.04797   1.00
H2       1.36616    1.05856    0.77537   1.00
H2       1.33071    1.09857    0.76581   1.00
H2       1.37874    1.10971    0.78858   1.00
H2       1.18320    0.74337    0.76508   1.00
H2       1.18729    0.75245    0.71170   1.00
H2       1.23121    0.75656    0.74338   1.00
H2       0.95389    1.04154    1.06956   1.00
H2       0.94836    1.02468    1.12088   1.00
H2       0.99319    1.05132    1.10574   1.00
H2       1.05807    0.75830    1.03755   1.00
H2       1.09098    0.72271    1.06201   1.00
H2       1.09766    0.77597    1.07026   1.00
C5       0.96355    0.53282    1.03212   1.00
H2       0.93500    0.51755    1.03325   1.00
H2       0.96318    0.55410    1.05657   1.00
C5       0.99672    0.50306    1.03776   1.00
C5       1.00261    0.49377    1.08131   1.00
H2       1.02444    0.51485    1.02560   1.00
O3       0.98409    0.68500    0.89945   1.00
C4       0.91460    0.64400    0.91486   1.00
C3c      0.92160    0.62257    0.94908   1.00
H1       0.92704    0.63775    0.97619   1.00
C3d      0.90703    0.62365    0.87996   1.00
C3       0.92228    0.58146    0.94885   1.00
O2       0.92456    0.56252    0.98419   1.00
C3       0.90842    0.58273    0.87947   1.00
H1       0.90381    0.56843    0.85174   1.00
C2       0.91588    0.56061    0.91372   1.00
C5       0.99325    0.68621    0.85930   1.00
H2       0.99751    0.71662    0.84857   1.00
H2       0.96977    0.67234    0.84150   1.00
C5       1.03117    0.66371    0.85344   1.00
H2       1.02726    0.63363    0.86517   1.00
H2       1.05448    0.67802    0.87105   1.00
C5       1.04262    0.66238    0.81002   1.00
H2       1.04631    0.69232    0.79805   1.00
H2       1.02000    0.64689    0.79262   1.00
C5       1.08157    0.64055    0.80505   1.00
C5       0.86346    0.65395    0.83979   1.00
C5       0.96398    0.55430    0.99316   1.00
H2       0.85355    0.67412    0.86320   1.00
H2       0.84396    0.62788    0.83952   1.00
H2       0.98090    0.58200    0.99573   1.00
H2       0.97847    0.53605    0.97029   1.00
H2       0.98978    0.47470    1.02319   1.00
H2       0.82013    0.72253    0.81674   1.00
H2       0.79620    0.67737    0.80254   1.00
C2       0.91653    0.76895    0.91280   1.00
C3       0.88184    0.74903    0.92264   1.00
O2       0.84648    0.76826    0.92209   1.00
C3       0.95061    0.74674    0.90567   1.00
H1       0.97786    0.76115    0.89907   1.00
C3a      0.88167    0.70787    0.92412   1.00
H1       0.85438    0.69298    0.92950   1.00
C3b      0.95004    0.70578    0.90595   1.00
C4       0.91540    0.68600    0.91514   1.00
O3       0.90291    0.64333    0.84494   1.00
C5       0.83486    0.77780    0.96042   1.00
H2       0.83178    0.75109    0.97884   1.00
C5       0.79547    0.79826    0.95739   1.00
H2       0.85637    0.79774    0.97449   1.00
H2       0.77242    0.77568    0.95357   1.00
H2       0.79576    0.81593    0.93011   1.00
C5       0.78641    0.82418    0.99294   1.00
H2       0.78929    0.80676    1.02014   1.00
C5       0.74461    0.84047    0.99056   1.00
H2       0.80641    0.84993    0.99431   1.00
C5       0.86021    0.67483    0.80064   1.00
H2       0.86356    0.65285    0.77693   1.00
H2       0.88519    0.69548    0.79801   1.00
C5       0.82136    0.69700    0.79654   1.00
C5       0.81705    0.71275    0.75469   1.00
H2       0.97939    0.47214    1.09127   1.00
C5       1.04336    0.47588    1.08744   1.00
H2       1.00002    0.52177    1.09907   1.00
C5       1.08829    0.63163    0.76153   1.00
H2       1.10642    0.65949    0.81645   1.00
H2       1.08058    0.61207    0.82218   1.00
C5       0.73392    0.86003    1.02956   1.00
H2       0.74283    0.86289    0.96606   1.00
H2       0.72337    0.81563    0.98442   1.00
H2       0.84476    0.72898    0.74605   1.00
H2       0.81207    0.68739    0.73376   1.00
C5       0.78203    0.74083    0.75279   1.00
H2       1.05463    0.46384    1.05856   1.00
H2       1.06419    0.49929    1.09857   1.00
H2       1.04142    0.45126    1.10971   1.00
H2       1.06492    0.64680    0.74337   1.00
H2       1.11830    0.64271    0.75245   1.00
H2       1.08662    0.59879    0.75656   1.00
H2       0.76044    0.87611    1.04154   1.00
H2       0.70912    0.88164    1.02468   1.00
H2       0.72426    0.83681    1.05132   1.00
H2       0.79245    0.77193    0.75830   1.00
H2       0.76799    0.73902    0.72271   1.00
H2       0.75974    0.73234    0.77597   1.00
C5       1.03212    0.96355    0.53282   1.00
H2       1.03325    0.93500    0.51755   1.00
H2       1.05657    0.96318    0.55410   1.00
C5       1.03776    0.99672    0.50306   1.00
C5       1.08131    1.00261    0.49377   1.00
H2       1.02560    1.02444    0.51485   1.00
O3       0.89945    0.98409    0.68500   1.00
C4       0.91486    0.91460    0.64400   1.00
C3c      0.94908    0.92160    0.62257   1.00
H1       0.97619    0.92704    0.63775   1.00
C3d      0.87996    0.90703    0.62365   1.00
C3       0.94885    0.92228    0.58146   1.00
O2       0.98419    0.92456    0.56252   1.00
C3       0.87947    0.90842    0.58273   1.00
H1       0.85174    0.90381    0.56843   1.00
C2       0.91372    0.91588    0.56061   1.00
C5       0.85930    0.99325    0.68621   1.00
H2       0.84857    0.99751    0.71662   1.00
H2       0.84150    0.96977    0.67234   1.00
C5       0.85344    1.03117    0.66371   1.00
H2       0.86517    1.02726    0.63363   1.00
H2       0.87105    1.05448    0.67802   1.00
C5       0.81002    1.04262    0.66238   1.00
H2       0.79805    1.04631    0.69232   1.00
H2       0.79262    1.02000    0.64689   1.00
C5       0.80505    1.08157    0.64055   1.00
C5       0.83979    0.86346    0.65395   1.00
C5       0.99316    0.96398    0.55430   1.00
H2       0.86320    0.85355    0.67412   1.00
H2       0.83952    0.84396    0.62788   1.00
H2       0.99573    0.98090    0.58200   1.00
H2       0.97029    0.97847    0.53605   1.00
H2       1.02319    0.98978    0.47470   1.00
H2       0.81674    0.82013    0.72253   1.00
H2       0.80254    0.79620    0.67737   1.00
C2       0.91280    0.91653    0.76895   1.00
C3       0.92264    0.88184    0.74903   1.00
O2       0.92209    0.84648    0.76826   1.00
C3       0.90567    0.95061    0.74674   1.00
H1       0.89907    0.97786    0.76115   1.00
C3a      0.92412    0.88167    0.70787   1.00
H1       0.92950    0.85438    0.69298   1.00
C3b      0.90595    0.95004    0.70578   1.00
C4       0.91514    0.91540    0.68600   1.00
O3       0.84494    0.90291    0.64333   1.00
C5       0.96042    0.83486    0.77780   1.00
H2       0.97884    0.83178    0.75109   1.00
C5       0.95739    0.79547    0.79826   1.00
H2       0.97449    0.85637    0.79774   1.00
H2       0.95357    0.77242    0.77568   1.00
H2       0.93011    0.79576    0.81593   1.00
C5       0.99294    0.78641    0.82418   1.00
H2       1.02014    0.78929    0.80676   1.00
C5       0.99056    0.74461    0.84047   1.00
H2       0.99431    0.80641    0.84993   1.00
C5       0.80064    0.86021    0.67483   1.00
H2       0.77693    0.86356    0.65285   1.00
H2       0.79801    0.88519    0.69548   1.00
C5       0.79654    0.82136    0.69700   1.00
C5       0.75469    0.81705    0.71275   1.00
H2       1.09127    0.97939    0.47214   1.00
C5       1.08744    1.04336    0.47588   1.00
H2       1.09907    1.00002    0.52177   1.00
C5       0.76153    1.08829    0.63163   1.00
H2       0.81645    1.10642    0.65949   1.00
H2       0.82218    1.08058    0.61207   1.00
C5       1.02956    0.73392    0.86003   1.00
H2       0.96606    0.74283    0.86289   1.00
H2       0.98442    0.72337    0.81563   1.00
H2       0.74605    0.84476    0.72898   1.00
H2       0.73376    0.81207    0.68739   1.00
C5       0.75279    0.78203    0.74083   1.00
H2       1.05856    1.05463    0.46384   1.00
H2       1.09857    1.06419    0.49929   1.00
H2       1.10971    1.04142    0.45126   1.00
H2       0.74337    1.06492    0.64680   1.00
H2       0.75245    1.11830    0.64271   1.00
H2       0.75656    1.08662    0.59879   1.00
H2       1.04154    0.76044    0.87611   1.00
H2       1.02468    0.70912    0.88164   1.00
H2       1.05132    0.72426    0.83681   1.00
H2       0.75830    0.79245    0.77193   1.00
H2       0.72271    0.76799    0.73902   1.00
H2       0.77597    0.75974    0.73234   1.00
C5       0.53212    0.36645    1.29718   1.00
H2       0.53325    0.39500    1.31245   1.00
H2       0.55657    0.36682    1.27590   1.00
C5       0.53776    0.33328    1.32694   1.00
C5       0.58131    0.32739    1.33623   1.00
H2       0.52560    0.30556    1.31515   1.00
O3       0.39945    0.34591    1.14500   1.00
C4       0.41486    0.41540    1.18600   1.00
C3c      0.44908    0.40840    1.20743   1.00
H1       0.47619    0.40296    1.19225   1.00
C3d      0.37996    0.42297    1.20635   1.00
C3       0.44885    0.40772    1.24854   1.00
O2       0.48419    0.40544    1.26748   1.00
C3       0.37947    0.42158    1.24727   1.00
H1       0.35174    0.42619    1.26157   1.00
C2       0.41372    0.41412    1.26939   1.00
C5       0.35930    0.33675    1.14379   1.00
H2       0.34857    0.33249    1.11338   1.00
H2       0.34150    0.36023    1.15766   1.00
C5       0.35344    0.29883    1.16629   1.00
H2       0.36517    0.30274    1.19637   1.00
H2       0.37105    0.27552    1.15198   1.00
C5       0.31002    0.28738    1.16762   1.00
H2       0.29805    0.28369    1.13768   1.00
H2       0.29262    0.31000    1.18311   1.00
C5       0.30505    0.24843    1.18945   1.00
C5       0.33979    0.46654    1.17605   1.00
C5       0.49316    0.36602    1.27570   1.00
H2       0.36320    0.47645    1.15588   1.00
H2       0.33952    0.48604    1.20212   1.00
H2       0.49573    0.34910    1.24800   1.00
H2       0.47029    0.35153    1.29395   1.00
H2       0.52319    0.34022    1.35530   1.00
H2       0.31674    0.50987    1.10747   1.00
H2       0.30254    0.53380    1.15263   1.00
C2       0.41280    0.41347    1.06105   1.00
C3       0.42264    0.44816    1.08097   1.00
O2       0.42209    0.48352    1.06174   1.00
C3       0.40567    0.37939    1.08326   1.00
H1       0.39907    0.35214    1.06885   1.00
C3a      0.42412    0.44833    1.12213   1.00
H1       0.42950    0.47562    1.13702   1.00
C3b      0.40595    0.37996    1.12422   1.00
C4       0.41514    0.41460    1.14400   1.00
O3       0.34494    0.42709    1.18667   1.00
C5       0.46042    0.49514    1.05220   1.00
H2       0.47884    0.49822    1.07891   1.00
C5       0.45739    0.53453    1.03174   1.00
H2       0.47449    0.47363    1.03226   1.00
H2       0.45357    0.55758    1.05432   1.00
H2       0.43011    0.53424    1.01407   1.00
C5       0.49294    0.54359    1.00582   1.00
H2       0.52014    0.54071    1.02324   1.00
C5       0.49056    0.58539    0.98953   1.00
H2       0.49431    0.52359    0.98007   1.00
C5       0.30064    0.46979    1.15517   1.00
H2       0.27693    0.46644    1.17715   1.00
H2       0.29801    0.44481    1.13452   1.00
C5       0.29654    0.50864    1.13300   1.00
C5       0.25469    0.51295    1.11725   1.00
H2       0.59127    0.35061    1.35786   1.00
C5       0.58744    0.28664    1.35412   1.00
H2       0.59907    0.32998    1.30823   1.00
C5       0.26153    0.24171    1.19837   1.00
H2       0.31645    0.22358    1.17051   1.00
H2       0.32218    0.24942    1.21793   1.00
C5       0.52956    0.59608    0.96997   1.00
H2       0.46606    0.58717    0.96711   1.00
H2       0.48442    0.60663    1.01437   1.00
H2       0.24605    0.48524    1.10102   1.00
H2       0.23376    0.51793    1.14261   1.00
C5       0.25279    0.54797    1.08917   1.00
H2       0.55856    0.27537    1.36616   1.00
H2       0.59857    0.26581    1.33071   1.00
H2       0.60971    0.28858    1.37874   1.00
H2       0.24337    0.26508    1.18320   1.00
H2       0.25245    0.21170    1.18729   1.00
H2       0.25656    0.24338    1.23121   1.00
H2       0.54154    0.56956    0.95389   1.00
H2       0.52468    0.62088    0.94836   1.00
H2       0.55132    0.60574    0.99319   1.00
H2       0.25830    0.53755    1.05807   1.00
H2       0.22271    0.56201    1.09098   1.00
H2       0.27597    0.57026    1.09766   1.00
C5       0.36645    0.79718    1.03212   1.00
H2       0.39500    0.81245    1.03325   1.00
H2       0.36682    0.77590    1.05657   1.00
C5       0.33328    0.82694    1.03776   1.00
C5       0.32739    0.83623    1.08131   1.00
H2       0.30556    0.81515    1.02560   1.00
O3       0.34591    0.64500    0.89945   1.00
C4       0.41540    0.68600    0.91486   1.00
C3c      0.40840    0.70743    0.94908   1.00
H1       0.40296    0.69225    0.97619   1.00
C3d      0.42297    0.70635    0.87996   1.00
C3       0.40772    0.74854    0.94885   1.00
O2       0.40544    0.76748    0.98419   1.00
C3       0.42158    0.74727    0.87947   1.00
H1       0.42619    0.76157    0.85174   1.00
C2       0.41412    0.76939    0.91372   1.00
C5       0.33675    0.64379    0.85930   1.00
H2       0.33249    0.61338    0.84857   1.00
H2       0.36023    0.65766    0.84150   1.00
C5       0.29883    0.66629    0.85344   1.00
H2       0.30274    0.69637    0.86517   1.00
H2       0.27552    0.65198    0.87105   1.00
C5       0.28738    0.66762    0.81002   1.00
H2       0.28369    0.63768    0.79805   1.00
H2       0.31000    0.68311    0.79262   1.00
C5       0.24843    0.68945    0.80505   1.00
C5       0.46654    0.67605    0.83979   1.00
C5       0.36602    0.77570    0.99316   1.00
H2       0.47645    0.65588    0.86320   1.00
H2       0.48604    0.70212    0.83952   1.00
H2       0.34910    0.74800    0.99573   1.00
H2       0.35153    0.79395    0.97029   1.00
H2       0.34022    0.85530    1.02319   1.00
H2       0.50987    0.60747    0.81674   1.00
H2       0.53380    0.65263    0.80254   1.00
C2       0.41347    0.56105    0.91280   1.00
C3       0.44816    0.58097    0.92264   1.00
O2       0.48352    0.56174    0.92209   1.00
C3       0.37939    0.58326    0.90567   1.00
H1       0.35214    0.56885    0.89907   1.00
C3a      0.44833    0.62213    0.92412   1.00
H1       0.47562    0.63702    0.92950   1.00
C3b      0.37996    0.62422    0.90595   1.00
C4       0.41460    0.64400    0.91514   1.00
O3       0.42709    0.68667    0.84494   1.00
C5       0.49514    0.55220    0.96042   1.00
H2       0.49822    0.57891    0.97884   1.00
C5       0.53453    0.53174    0.95739   1.00
H2       0.47363    0.53226    0.97449   1.00
H2       0.55758    0.55432    0.95357   1.00
H2       0.53424    0.51407    0.93011   1.00
C5       0.54359    0.50582    0.99294   1.00
H2       0.54071    0.52324    1.02014   1.00
C5       0.58539    0.48953    0.99056   1.00
H2       0.52359    0.48007    0.99431   1.00
C5       0.46979    0.65517    0.80064   1.00
H2       0.46644    0.67715    0.77693   1.00
H2       0.44481    0.63452    0.79801   1.00
C5       0.50864    0.63300    0.79654   1.00
C5       0.51295    0.61725    0.75469   1.00
H2       0.35061    0.85786    1.09127   1.00
C5       0.28664    0.85412    1.08744   1.00
H2       0.32998    0.80823    1.09907   1.00
C5       0.24171    0.69837    0.76153   1.00
H2       0.22358    0.67051    0.81645   1.00
H2       0.24942    0.71793    0.82218   1.00
C5       0.59608    0.46997    1.02956   1.00
H2       0.58717    0.46711    0.96606   1.00
H2       0.60663    0.51437    0.98442   1.00
H2       0.48524    0.60102    0.74605   1.00
H2       0.51793    0.64261    0.73376   1.00
C5       0.54797    0.58917    0.75279   1.00
H2       0.27537    0.86616    1.05856   1.00
H2       0.26581    0.83071    1.09857   1.00
H2       0.28858    0.87874    1.10971   1.00
H2       0.26508    0.68320    0.74337   1.00
H2       0.21170    0.68729    0.75245   1.00
H2       0.24338    0.73121    0.75656   1.00
H2       0.56956    0.45389    1.04154   1.00
H2       0.62088    0.44836    1.02468   1.00
H2       0.60574    0.49319    1.05132   1.00
H2       0.53755    0.55807    0.75830   1.00
H2       0.56201    0.59098    0.72271   1.00
H2       0.57026    0.59766    0.77597   1.00
C5       0.03282    0.53212    0.96355   1.00
H2       0.01755    0.53325    0.93500   1.00
H2       0.05410    0.55657    0.96318   1.00
C5       0.00306    0.53776    0.99672   1.00
C5       -0.00623   0.58131    1.00261   1.00
H2       0.01485    0.52560    1.02444   1.00
O3       0.18500    0.39945    0.98409   1.00
C4       0.14400    0.41486    0.91460   1.00
C3c      0.12257    0.44908    0.92160   1.00
H1       0.13775    0.47619    0.92704   1.00
C3d      0.12365    0.37996    0.90703   1.00
C3       0.08146    0.44885    0.92228   1.00
O2       0.06252    0.48419    0.92456   1.00
C3       0.08273    0.37947    0.90842   1.00
H1       0.06843    0.35174    0.90381   1.00
C2       0.06061    0.41372    0.91588   1.00
C5       0.18621    0.35930    0.99325   1.00
H2       0.21662    0.34857    0.99751   1.00
H2       0.17234    0.34150    0.96977   1.00
C5       0.16371    0.35344    1.03117   1.00
H2       0.13363    0.36517    1.02726   1.00
H2       0.17802    0.37105    1.05448   1.00
C5       0.16238    0.31002    1.04262   1.00
H2       0.19232    0.29805    1.04631   1.00
H2       0.14689    0.29262    1.02000   1.00
C5       0.14055    0.30505    1.08157   1.00
C5       0.15395    0.33979    0.86346   1.00
C5       0.05430    0.49316    0.96398   1.00
H2       0.17412    0.36320    0.85355   1.00
H2       0.12788    0.33952    0.84396   1.00
H2       0.08200    0.49573    0.98090   1.00
H2       0.03605    0.47029    0.97847   1.00
H2       -0.02530   0.52319    0.98978   1.00
H2       0.22253    0.31674    0.82013   1.00
H2       0.17737    0.30254    0.79620   1.00
C2       0.26895    0.41280    0.91653   1.00
C3       0.24903    0.42264    0.88184   1.00
O2       0.26826    0.42209    0.84648   1.00
C3       0.24674    0.40567    0.95061   1.00
H1       0.26115    0.39907    0.97786   1.00
C3a      0.20787    0.42412    0.88167   1.00
H1       0.19298    0.42950    0.85438   1.00
C3b      0.20578    0.40595    0.95004   1.00
C4       0.18600    0.41514    0.91540   1.00
O3       0.14333    0.34494    0.90291   1.00
C5       0.27780    0.46042    0.83486   1.00
H2       0.25109    0.47884    0.83178   1.00
C5       0.29826    0.45739    0.79547   1.00
H2       0.29774    0.47449    0.85637   1.00
H2       0.27568    0.45357    0.77242   1.00
H2       0.31593    0.43011    0.79576   1.00
C5       0.32418    0.49294    0.78641   1.00
H2       0.30676    0.52014    0.78929   1.00
C5       0.34047    0.49056    0.74461   1.00
H2       0.34993    0.49431    0.80641   1.00
C5       0.17483    0.30064    0.86021   1.00
H2       0.15285    0.27693    0.86356   1.00
H2       0.19548    0.29801    0.88519   1.00
C5       0.19700    0.29654    0.82136   1.00
C5       0.21275    0.25469    0.81705   1.00
H2       -0.02786   0.59127    0.97939   1.00
C5       -0.02412   0.58744    1.04336   1.00
H2       0.02177    0.59907    1.00002   1.00
C5       0.13163    0.26153    1.08829   1.00
H2       0.15949    0.31645    1.10642   1.00
H2       0.11207    0.32218    1.08058   1.00
C5       0.36003    0.52956    0.73392   1.00
H2       0.36289    0.46606    0.74283   1.00
H2       0.31563    0.48442    0.72337   1.00
H2       0.22898    0.24605    0.84476   1.00
H2       0.18739    0.23376    0.81207   1.00
C5       0.24083    0.25279    0.78203   1.00
H2       -0.03616   0.55856    1.05463   1.00
H2       -0.00071   0.59857    1.06419   1.00
H2       -0.04874   0.60971    1.04142   1.00
H2       0.14680    0.24337    1.06492   1.00
H2       0.14271    0.25245    1.11830   1.00
H2       0.09879    0.25656    1.08662   1.00
H2       0.37611    0.54154    0.76044   1.00
H2       0.38164    0.52468    0.70912   1.00
H2       0.33681    0.55132    0.72426   1.00
H2       0.27193    0.25830    0.79245   1.00
H2       0.23902    0.22271    0.76799   1.00
H2       0.23234    0.27597    0.75974   1.00
C5       0.79718    0.53212    0.86645   1.00
H2       0.81245    0.53325    0.89500   1.00
H2       0.77590    0.55657    0.86682   1.00
C5       0.82694    0.53776    0.83328   1.00
C5       0.83623    0.58131    0.82739   1.00
H2       0.81515    0.52560    0.80556   1.00
O3       0.64500    0.39945    0.84591   1.00
C4       0.68600    0.41486    0.91540   1.00
C3c      0.70743    0.44908    0.90840   1.00
H1       0.69225    0.47619    0.90296   1.00
C3d      0.70635    0.37996    0.92297   1.00
C3       0.74854    0.44885    0.90772   1.00
O2       0.76748    0.48419    0.90544   1.00
C3       0.74727    0.37947    0.92158   1.00
H1       0.76157    0.35174    0.92619   1.00
C2       0.76939    0.41372    0.91412   1.00
C5       0.64379    0.35930    0.83675   1.00
H2       0.61338    0.34857    0.83249   1.00
H2       0.65766    0.34150    0.86023   1.00
C5       0.66629    0.35344    0.79883   1.00
H2       0.69637    0.36517    0.80274   1.00
H2       0.65198    0.37105    0.77552   1.00
C5       0.66762    0.31002    0.78738   1.00
H2       0.63768    0.29805    0.78369   1.00
H2       0.68311    0.29262    0.81000   1.00
C5       0.68945    0.30505    0.74843   1.00
C5       0.67605    0.33979    0.96654   1.00
C5       0.77570    0.49316    0.86602   1.00
H2       0.65588    0.36320    0.97645   1.00
H2       0.70212    0.33952    0.98604   1.00
H2       0.74800    0.49573    0.84910   1.00
H2       0.79395    0.47029    0.85153   1.00
H2       0.85530    0.52319    0.84022   1.00
H2       0.60747    0.31674    1.00987   1.00
H2       0.65263    0.30254    1.03380   1.00
C2       0.56105    0.41280    0.91347   1.00
C3       0.58097    0.42264    0.94816   1.00
O2       0.56174    0.42209    0.98352   1.00
C3       0.58326    0.40567    0.87939   1.00
H1       0.56885    0.39907    0.85214   1.00
C3a      0.62213    0.42412    0.94833   1.00
H1       0.63702    0.42950    0.97562   1.00
C3b      0.62422    0.40595    0.87996   1.00
C4       0.64400    0.41514    0.91460   1.00
O3       0.68667    0.34494    0.92709   1.00
C5       0.55220    0.46042    0.99514   1.00
H2       0.57891    0.47884    0.99822   1.00
C5       0.53174    0.45739    1.03453   1.00
H2       0.53226    0.47449    0.97363   1.00
H2       0.55432    0.45357    1.05758   1.00
H2       0.51407    0.43011    1.03424   1.00
C5       0.50582    0.49294    1.04359   1.00
H2       0.52324    0.52014    1.04071   1.00
C5       0.48953    0.49056    1.08539   1.00
H2       0.48007    0.49431    1.02359   1.00
C5       0.65517    0.30064    0.96979   1.00
H2       0.67715    0.27693    0.96644   1.00
H2       0.63452    0.29801    0.94481   1.00
C5       0.63300    0.29654    1.00864   1.00
C5       0.61725    0.25469    1.01295   1.00
H2       0.85786    0.59127    0.85061   1.00
C5       0.85412    0.58744    0.78664   1.00
H2       0.80823    0.59907    0.82998   1.00
C5       0.69837    0.26153    0.74171   1.00
H2       0.67051    0.31645    0.72358   1.00
H2       0.71793    0.32218    0.74942   1.00
C5       0.46997    0.52956    1.09608   1.00
H2       0.46711    0.46606    1.08717   1.00
H2       0.51437    0.48442    1.10663   1.00
H2       0.60102    0.24605    0.98524   1.00
H2       0.64261    0.23376    1.01793   1.00
C5       0.58917    0.25279    1.04797   1.00
H2       0.86616    0.55856    0.77537   1.00
H2       0.83071    0.59857    0.76581   1.00
H2       0.87874    0.60971    0.78858   1.00
H2       0.68320    0.24337    0.76508   1.00
H2       0.68729    0.25245    0.71170   1.00
H2       0.73121    0.25656    0.74338   1.00
H2       0.45389    0.54154    1.06956   1.00
H2       0.44836    0.52468    1.12088   1.00
H2       0.49319    0.55132    1.10574   1.00
H2       0.55807    0.25830    1.03755   1.00
H2       0.59098    0.22271    1.06201   1.00
H2       0.59766    0.27597    1.07026   1.00
C5       0.46355    0.03282    1.03212   1.00
H2       0.43500    0.01755    1.03325   1.00
H2       0.46318    0.05410    1.05657   1.00
C5       0.49672    0.00306    1.03776   1.00
C5       0.50261    -0.00623   1.08131   1.00
H2       0.52444    0.01485    1.02560   1.00
O3       0.48409    0.18500    0.89945   1.00
C4       0.41460    0.14400    0.91486   1.00
C3c      0.42160    0.12257    0.94908   1.00
H1       0.42704    0.13775    0.97619   1.00
C3d      0.40703    0.12365    0.87996   1.00
C3       0.42228    0.08146    0.94885   1.00
O2       0.42456    0.06252    0.98419   1.00
C3       0.40842    0.08273    0.87947   1.00
H1       0.40381    0.06843    0.85174   1.00
C2       0.41588    0.06061    0.91372   1.00
C5       0.49325    0.18621    0.85930   1.00
H2       0.49751    0.21662    0.84857   1.00
H2       0.46977    0.17234    0.84150   1.00
C5       0.53117    0.16371    0.85344   1.00
H2       0.52726    0.13363    0.86517   1.00
H2       0.55448    0.17802    0.87105   1.00
C5       0.54262    0.16238    0.81002   1.00
H2       0.54631    0.19232    0.79805   1.00
H2       0.52000    0.14689    0.79262   1.00
C5       0.58157    0.14055    0.80505   1.00
C5       0.36346    0.15395    0.83979   1.00
C5       0.46398    0.05430    0.99316   1.00
H2       0.35355    0.17412    0.86320   1.00
H2       0.34396    0.12788    0.83952   1.00
H2       0.48090    0.08200    0.99573   1.00
H2       0.47847    0.03605    0.97029   1.00
H2       0.48978    -0.02530   1.02319   1.00
H2       0.32013    0.22253    0.81674   1.00
H2       0.29620    0.17737    0.80254   1.00
C2       0.41653    0.26895    0.91280   1.00
C3       0.38184    0.24903    0.92264   1.00
O2       0.34648    0.26826    0.92209   1.00
C3       0.45061    0.24674    0.90567   1.00
H1       0.47786    0.26115    0.89907   1.00
C3a      0.38167    0.20787    0.92412   1.00
H1       0.35438    0.19298    0.92950   1.00
C3b      0.45004    0.20578    0.90595   1.00
C4       0.41540    0.18600    0.91514   1.00
O3       0.40291    0.14333    0.84494   1.00
C5       0.33486    0.27780    0.96042   1.00
H2       0.33178    0.25109    0.97884   1.00
C5       0.29547    0.29826    0.95739   1.00
H2       0.35637    0.29774    0.97449   1.00
H2       0.27242    0.27568    0.95357   1.00
H2       0.29576    0.31593    0.93011   1.00
C5       0.28641    0.32418    0.99294   1.00
H2       0.28929    0.30676    1.02014   1.00
C5       0.24461    0.34047    0.99056   1.00
H2       0.30641    0.34993    0.99431   1.00
C5       0.36021    0.17483    0.80064   1.00
H2       0.36356    0.15285    0.77693   1.00
H2       0.38519    0.19548    0.79801   1.00
C5       0.32136    0.19700    0.79654   1.00
C5       0.31705    0.21275    0.75469   1.00
H2       0.47939    -0.02786   1.09127   1.00
C5       0.54336    -0.02412   1.08744   1.00
H2       0.50002    0.02177    1.09907   1.00
C5       0.58829    0.13163    0.76153   1.00
H2       0.60642    0.15949    0.81645   1.00
H2       0.58058    0.11207    0.82218   1.00
C5       0.23392    0.36003    1.02956   1.00
H2       0.24283    0.36289    0.96606   1.00
H2       0.22337    0.31563    0.98442   1.00
H2       0.34476    0.22898    0.74605   1.00
H2       0.31207    0.18739    0.73376   1.00
C5       0.28203    0.24083    0.75279   1.00
H2       0.55463    -0.03616   1.05856   1.00
H2       0.56419    -0.00071   1.09857   1.00
H2       0.54142    -0.04874   1.10971   1.00
H2       0.56492    0.14680    0.74337   1.00
H2       0.61830    0.14271    0.75245   1.00
H2       0.58662    0.09879    0.75656   1.00
H2       0.26044    0.37611    1.04154   1.00
H2       0.20912    0.38164    1.02468   1.00
H2       0.22426    0.33681    1.05132   1.00
H2       0.29245    0.27193    0.75830   1.00
H2       0.26799    0.23902    0.72271   1.00
H2       0.25974    0.23234    0.77597   1.00
C5       0.53212    0.46355    0.53282   1.00
H2       0.53325    0.43500    0.51755   1.00
H2       0.55657    0.46318    0.55410   1.00
C5       0.53776    0.49672    0.50306   1.00
C5       0.58131    0.50261    0.49377   1.00
H2       0.52560    0.52444    0.51485   1.00
O3       0.39945    0.48409    0.68500   1.00
C4       0.41486    0.41460    0.64400   1.00
C3c      0.44908    0.42160    0.62257   1.00
H1       0.47619    0.42704    0.63775   1.00
C3d      0.37996    0.40703    0.62365   1.00
C3       0.44885    0.42228    0.58146   1.00
O2       0.48419    0.42456    0.56252   1.00
C3       0.37947    0.40842    0.58273   1.00
H1       0.35174    0.40381    0.56843   1.00
C2       0.41372    0.41588    0.56061   1.00
C5       0.35930    0.49325    0.68621   1.00
H2       0.34857    0.49751    0.71662   1.00
H2       0.34150    0.46977    0.67234   1.00
C5       0.35344    0.53117    0.66371   1.00
H2       0.36517    0.52726    0.63363   1.00
H2       0.37105    0.55448    0.67802   1.00
C5       0.31002    0.54262    0.66238   1.00
H2       0.29805    0.54631    0.69232   1.00
H2       0.29262    0.52000    0.64689   1.00
C5       0.30505    0.58157    0.64055   1.00
C5       0.33979    0.36346    0.65395   1.00
C5       0.49316    0.46398    0.55430   1.00
H2       0.36320    0.35355    0.67412   1.00
H2       0.33952    0.34396    0.62788   1.00
H2       0.49573    0.48090    0.58200   1.00
H2       0.47029    0.47847    0.53605   1.00
H2       0.52319    0.48978    0.47470   1.00
H2       0.31674    0.32013    0.72253   1.00
H2       0.30254    0.29620    0.67737   1.00
C2       0.41280    0.41653    0.76895   1.00
C3       0.42264    0.38184    0.74903   1.00
O2       0.42209    0.34648    0.76826   1.00
C3       0.40567    0.45061    0.74674   1.00
H1       0.39907    0.47786    0.76115   1.00
C3a      0.42412    0.38167    0.70787   1.00
H1       0.42950    0.35438    0.69298   1.00
C3b      0.40595    0.45004    0.70578   1.00
C4       0.41514    0.41540    0.68600   1.00
O3       0.34494    0.40291    0.64333   1.00
C5       0.46042    0.33486    0.77780   1.00
H2       0.47884    0.33178    0.75109   1.00
C5       0.45739    0.29547    0.79826   1.00
H2       0.47449    0.35637    0.79774   1.00
H2       0.45357    0.27242    0.77568   1.00
H2       0.43011    0.29576    0.81593   1.00
C5       0.49294    0.28641    0.82418   1.00
H2       0.52014    0.28929    0.80676   1.00
C5       0.49056    0.24461    0.84047   1.00
H2       0.49431    0.30641    0.84993   1.00
C5       0.30064    0.36021    0.67483   1.00
H2       0.27693    0.36356    0.65285   1.00
H2       0.29801    0.38519    0.69548   1.00
C5       0.29654    0.32136    0.69700   1.00
C5       0.25469    0.31705    0.71275   1.00
H2       0.59127    0.47939    0.47214   1.00
C5       0.58744    0.54336    0.47588   1.00
H2       0.59907    0.50002    0.52177   1.00
C5       0.26153    0.58829    0.63163   1.00
H2       0.31645    0.60642    0.65949   1.00
H2       0.32218    0.58058    0.61207   1.00
C5       0.52956    0.23392    0.86003   1.00
H2       0.46606    0.24283    0.86289   1.00
H2       0.48442    0.22337    0.81563   1.00
H2       0.24605    0.34476    0.72898   1.00
H2       0.23376    0.31207    0.68739   1.00
C5       0.25279    0.28203    0.74083   1.00
H2       0.55856    0.55463    0.46384   1.00
H2       0.59857    0.56419    0.49929   1.00
H2       0.60971    0.54142    0.45126   1.00
H2       0.24337    0.56492    0.64680   1.00
H2       0.25245    0.61830    0.64271   1.00
H2       0.25656    0.58662    0.59879   1.00
H2       0.54154    0.26044    0.87611   1.00
H2       0.52468    0.20912    0.88164   1.00
H2       0.55132    0.22426    0.83681   1.00
H2       0.25830    0.29245    0.77193   1.00
H2       0.22271    0.26799    0.73902   1.00
H2       0.27597    0.25974    0.73234   1.00
C5       0.53212    0.86645    0.79718   1.00
H2       0.53325    0.89500    0.81245   1.00
H2       0.55657    0.86682    0.77590   1.00
C5       0.53776    0.83328    0.82694   1.00
C5       0.58131    0.82739    0.83623   1.00
H2       0.52560    0.80556    0.81515   1.00
O3       0.39945    0.84591    0.64500   1.00
C4       0.41486    0.91540    0.68600   1.00
C3c      0.44908    0.90840    0.70743   1.00
H1       0.47619    0.90296    0.69225   1.00
C3d      0.37996    0.92297    0.70635   1.00
C3       0.44885    0.90772    0.74854   1.00
O2       0.48419    0.90544    0.76748   1.00
C3       0.37947    0.92158    0.74727   1.00
H1       0.35174    0.92619    0.76157   1.00
C2       0.41372    0.91412    0.76939   1.00
C5       0.35930    0.83675    0.64379   1.00
H2       0.34857    0.83249    0.61338   1.00
H2       0.34150    0.86023    0.65766   1.00
C5       0.35344    0.79883    0.66629   1.00
H2       0.36517    0.80274    0.69637   1.00
H2       0.37105    0.77552    0.65198   1.00
C5       0.31002    0.78738    0.66762   1.00
H2       0.29805    0.78369    0.63768   1.00
H2       0.29262    0.81000    0.68311   1.00
C5       0.30505    0.74843    0.68945   1.00
C5       0.33979    0.96654    0.67605   1.00
C5       0.49316    0.86602    0.77570   1.00
H2       0.36320    0.97645    0.65588   1.00
H2       0.33952    0.98604    0.70212   1.00
H2       0.49573    0.84910    0.74800   1.00
H2       0.47029    0.85153    0.79395   1.00
H2       0.52319    0.84022    0.85530   1.00
H2       0.31674    1.00987    0.60747   1.00
H2       0.30254    1.03380    0.65263   1.00
C2       0.41280    0.91347    0.56105   1.00
C3       0.42264    0.94816    0.58097   1.00
O2       0.42209    0.98352    0.56174   1.00
C3       0.40567    0.87939    0.58326   1.00
H1       0.39907    0.85214    0.56885   1.00
C3a      0.42412    0.94833    0.62213   1.00
H1       0.42950    0.97562    0.63702   1.00
C3b      0.40595    0.87996    0.62422   1.00
C4       0.41514    0.91460    0.64400   1.00
O3       0.34494    0.92709    0.68667   1.00
C5       0.46042    0.99514    0.55220   1.00
H2       0.47884    0.99822    0.57891   1.00
C5       0.45739    1.03453    0.53174   1.00
H2       0.47449    0.97363    0.53226   1.00
H2       0.45357    1.05758    0.55432   1.00
H2       0.43011    1.03424    0.51407   1.00
C5       0.49294    1.04359    0.50582   1.00
H2       0.52014    1.04071    0.52324   1.00
C5       0.49056    1.08539    0.48953   1.00
H2       0.49431    1.02359    0.48007   1.00
C5       0.30064    0.96979    0.65517   1.00
H2       0.27693    0.96644    0.67715   1.00
H2       0.29801    0.94481    0.63452   1.00
C5       0.29654    1.00864    0.63300   1.00
C5       0.25469    1.01295    0.61725   1.00
H2       0.59127    0.85061    0.85786   1.00
C5       0.58744    0.78664    0.85412   1.00
H2       0.59907    0.82998    0.80823   1.00
C5       0.26153    0.74171    0.69837   1.00
H2       0.31645    0.72358    0.67051   1.00
H2       0.32218    0.74942    0.71793   1.00
C5       0.52956    1.09608    0.46997   1.00
H2       0.46606    1.08717    0.46711   1.00
H2       0.48442    1.10663    0.51437   1.00
H2       0.24605    0.98524    0.60102   1.00
H2       0.23376    1.01793    0.64261   1.00
C5       0.25279    1.04797    0.58917   1.00
H2       0.55856    0.77537    0.86616   1.00
H2       0.59857    0.76581    0.83071   1.00
H2       0.60971    0.78858    0.87874   1.00
H2       0.24337    0.76508    0.68320   1.00
H2       0.25245    0.71170    0.68729   1.00
H2       0.25656    0.74338    0.73121   1.00
H2       0.54154    1.06956    0.45389   1.00
H2       0.52468    1.12088    0.44836   1.00
H2       0.55132    1.10574    0.49319   1.00
H2       0.25830    1.03755    0.55807   1.00
H2       0.22271    1.06201    0.59098   1.00
H2       0.27597    1.07026    0.59766   1.00
C5       0.36645    1.29718    0.53212   1.00
H2       0.39500    1.31245    0.53325   1.00
H2       0.36682    1.27590    0.55657   1.00
C5       0.33328    1.32694    0.53776   1.00
C5       0.32739    1.33623    0.58131   1.00
H2       0.30556    1.31515    0.52560   1.00
O3       0.34591    1.14500    0.39945   1.00
C4       0.41540    1.18600    0.41486   1.00
C3c      0.40840    1.20743    0.44908   1.00
H1       0.40296    1.19225    0.47619   1.00
C3d      0.42297    1.20635    0.37996   1.00
C3       0.40772    1.24854    0.44885   1.00
O2       0.40544    1.26748    0.48419   1.00
C3       0.42158    1.24727    0.37947   1.00
H1       0.42619    1.26157    0.35174   1.00
C2       0.41412    1.26939    0.41372   1.00
C5       0.33675    1.14379    0.35930   1.00
H2       0.33249    1.11338    0.34857   1.00
H2       0.36023    1.15766    0.34150   1.00
C5       0.29883    1.16629    0.35344   1.00
H2       0.30274    1.19637    0.36517   1.00
H2       0.27552    1.15198    0.37105   1.00
C5       0.28738    1.16762    0.31002   1.00
H2       0.28369    1.13768    0.29805   1.00
H2       0.31000    1.18311    0.29262   1.00
C5       0.24843    1.18945    0.30505   1.00
C5       0.46654    1.17605    0.33979   1.00
C5       0.36602    1.27570    0.49316   1.00
H2       0.47645    1.15588    0.36320   1.00
H2       0.48604    1.20212    0.33952   1.00
H2       0.34910    1.24800    0.49573   1.00
H2       0.35153    1.29395    0.47029   1.00
H2       0.34022    1.35530    0.52319   1.00
H2       0.50987    1.10747    0.31674   1.00
H2       0.53380    1.15263    0.30254   1.00
C2       0.41347    1.06105    0.41280   1.00
C3       0.44816    1.08097    0.42264   1.00
O2       0.48352    1.06174    0.42209   1.00
C3       0.37939    1.08326    0.40567   1.00
H1       0.35214    1.06885    0.39907   1.00
C3a      0.44833    1.12213    0.42412   1.00
H1       0.47562    1.13702    0.42950   1.00
C3b      0.37996    1.12422    0.40595   1.00
C4       0.41460    1.14400    0.41514   1.00
O3       0.42709    1.18667    0.34494   1.00
C5       0.49514    1.05220    0.46042   1.00
H2       0.49822    1.07891    0.47884   1.00
C5       0.53453    1.03174    0.45739   1.00
H2       0.47363    1.03226    0.47449   1.00
H2       0.55758    1.05432    0.45357   1.00
H2       0.53424    1.01407    0.43011   1.00
C5       0.54359    1.00582    0.49294   1.00
H2       0.54071    1.02324    0.52014   1.00
C5       0.58539    0.98953    0.49056   1.00
H2       0.52359    0.98007    0.49431   1.00
C5       0.46979    1.15517    0.30064   1.00
H2       0.46644    1.17715    0.27693   1.00
H2       0.44481    1.13452    0.29801   1.00
C5       0.50864    1.13300    0.29654   1.00
C5       0.51295    1.11725    0.25469   1.00
H2       0.35061    1.35786    0.59127   1.00
C5       0.28664    1.35412    0.58744   1.00
H2       0.32998    1.30823    0.59907   1.00
C5       0.24171    1.19837    0.26153   1.00
H2       0.22358    1.17051    0.31645   1.00
H2       0.24942    1.21793    0.32218   1.00
C5       0.59608    0.96997    0.52956   1.00
H2       0.58717    0.96711    0.46606   1.00
H2       0.60663    1.01437    0.48442   1.00
H2       0.48524    1.10102    0.24605   1.00
H2       0.51793    1.14261    0.23376   1.00
C5       0.54797    1.08917    0.25279   1.00
H2       0.27537    1.36616    0.55856   1.00
H2       0.26581    1.33071    0.59857   1.00
H2       0.28858    1.37874    0.60971   1.00
H2       0.26508    1.18320    0.24337   1.00
H2       0.21170    1.18729    0.25245   1.00
H2       0.24338    1.23121    0.25656   1.00
H2       0.56956    0.95389    0.54154   1.00
H2       0.62088    0.94836    0.52468   1.00
H2       0.60574    0.99319    0.55132   1.00
H2       0.53755    1.05807    0.25830   1.00
H2       0.56201    1.09098    0.22271   1.00
H2       0.57026    1.09766    0.27597   1.00
C5       0.03282    1.03212    0.46355   1.00
H2       0.01755    1.03325    0.43500   1.00
H2       0.05410    1.05657    0.46318   1.00
C5       0.00306    1.03776    0.49672   1.00
C5       -0.00623   1.08131    0.50261   1.00
H2       0.01485    1.02560    0.52444   1.00
O3       0.18500    0.89945    0.48409   1.00
C4       0.14400    0.91486    0.41460   1.00
C3c      0.12257    0.94908    0.42160   1.00
H1       0.13775    0.97619    0.42704   1.00
C3d      0.12365    0.87996    0.40703   1.00
C3       0.08146    0.94885    0.42228   1.00
O2       0.06252    0.98419    0.42456   1.00
C3       0.08273    0.87947    0.40842   1.00
H1       0.06843    0.85174    0.40381   1.00
C2       0.06061    0.91372    0.41588   1.00
C5       0.18621    0.85930    0.49325   1.00
H2       0.21662    0.84857    0.49751   1.00
H2       0.17234    0.84150    0.46977   1.00
C5       0.16371    0.85344    0.53117   1.00
H2       0.13363    0.86517    0.52726   1.00
H2       0.17802    0.87105    0.55448   1.00
C5       0.16238    0.81002    0.54262   1.00
H2       0.19232    0.79805    0.54631   1.00
H2       0.14689    0.79262    0.52000   1.00
C5       0.14055    0.80505    0.58157   1.00
C5       0.15395    0.83979    0.36346   1.00
C5       0.05430    0.99316    0.46398   1.00
H2       0.17412    0.86320    0.35355   1.00
H2       0.12788    0.83952    0.34396   1.00
H2       0.08200    0.99573    0.48090   1.00
H2       0.03605    0.97029    0.47847   1.00
H2       -0.02530   1.02319    0.48978   1.00
H2       0.22253    0.81674    0.32013   1.00
H2       0.17737    0.80254    0.29620   1.00
C2       0.26895    0.91280    0.41653   1.00
C3       0.24903    0.92264    0.38184   1.00
O2       0.26826    0.92209    0.34648   1.00
C3       0.24674    0.90567    0.45061   1.00
H1       0.26115    0.89907    0.47786   1.00
C3a      0.20787    0.92412    0.38167   1.00
H1       0.19298    0.92950    0.35438   1.00
C3b      0.20578    0.90595    0.45004   1.00
C4       0.18600    0.91514    0.41540   1.00
O3       0.14333    0.84494    0.40291   1.00
C5       0.27780    0.96042    0.33486   1.00
H2       0.25109    0.97884    0.33178   1.00
C5       0.29826    0.95739    0.29547   1.00
H2       0.29774    0.97449    0.35637   1.00
H2       0.27568    0.95357    0.27242   1.00
H2       0.31593    0.93011    0.29576   1.00
C5       0.32418    0.99294    0.28641   1.00
H2       0.30676    1.02014    0.28929   1.00
C5       0.34047    0.99056    0.24461   1.00
H2       0.34993    0.99431    0.30641   1.00
C5       0.17483    0.80064    0.36021   1.00
H2       0.15285    0.77693    0.36356   1.00
H2       0.19548    0.79801    0.38519   1.00
C5       0.19700    0.79654    0.32136   1.00
C5       0.21275    0.75469    0.31705   1.00
H2       -0.02786   1.09127    0.47939   1.00
C5       -0.02412   1.08744    0.54336   1.00
H2       0.02177    1.09907    0.50002   1.00
C5       0.13163    0.76153    0.58829   1.00
H2       0.15949    0.81645    0.60642   1.00
H2       0.11207    0.82218    0.58058   1.00
C5       0.36003    1.02956    0.23392   1.00
H2       0.36289    0.96606    0.24283   1.00
H2       0.31563    0.98442    0.22337   1.00
H2       0.22898    0.74605    0.34476   1.00
H2       0.18739    0.73376    0.31207   1.00
C5       0.24083    0.75279    0.28203   1.00
H2       -0.03616   1.05856    0.55463   1.00
H2       -0.00071   1.09857    0.56419   1.00
H2       -0.04874   1.10971    0.54142   1.00
H2       0.14680    0.74337    0.56492   1.00
H2       0.14271    0.75245    0.61830   1.00
H2       0.09879    0.75656    0.58662   1.00
H2       0.37611    1.04154    0.26044   1.00
H2       0.38164    1.02468    0.20912   1.00
H2       0.33681    1.05132    0.22426   1.00
H2       0.27193    0.75830    0.29245   1.00
H2       0.23902    0.72271    0.26799   1.00
H2       0.23234    0.77597    0.25974   1.00
C5       0.79718    1.03212    0.36645   1.00
H2       0.81245    1.03325    0.39500   1.00
H2       0.77590    1.05657    0.36682   1.00
C5       0.82694    1.03776    0.33328   1.00
C5       0.83623    1.08131    0.32739   1.00
H2       0.81515    1.02560    0.30556   1.00
O3       0.64500    0.89945    0.34591   1.00
C4       0.68600    0.91486    0.41540   1.00
C3c      0.70743    0.94908    0.40840   1.00
H1       0.69225    0.97619    0.40296   1.00
C3d      0.70635    0.87996    0.42297   1.00
C3       0.74854    0.94885    0.40772   1.00
O2       0.76748    0.98419    0.40544   1.00
C3       0.74727    0.87947    0.42158   1.00
H1       0.76157    0.85174    0.42619   1.00
C2       0.76939    0.91372    0.41412   1.00
C5       0.64379    0.85930    0.33675   1.00
H2       0.61338    0.84857    0.33249   1.00
H2       0.65766    0.84150    0.36023   1.00
C5       0.66629    0.85344    0.29883   1.00
H2       0.69637    0.86517    0.30274   1.00
H2       0.65198    0.87105    0.27552   1.00
C5       0.66762    0.81002    0.28738   1.00
H2       0.63768    0.79805    0.28369   1.00
H2       0.68311    0.79262    0.31000   1.00
C5       0.68945    0.80505    0.24843   1.00
C5       0.67605    0.83979    0.46654   1.00
C5       0.77570    0.99316    0.36602   1.00
H2       0.65588    0.86320    0.47645   1.00
H2       0.70212    0.83952    0.48604   1.00
H2       0.74800    0.99573    0.34910   1.00
H2       0.79395    0.97029    0.35153   1.00
H2       0.85530    1.02319    0.34022   1.00
H2       0.60747    0.81674    0.50987   1.00
H2       0.65263    0.80254    0.53380   1.00
C2       0.56105    0.91280    0.41347   1.00
C3       0.58097    0.92264    0.44816   1.00
O2       0.56174    0.92209    0.48352   1.00
C3       0.58326    0.90567    0.37939   1.00
H1       0.56885    0.89907    0.35214   1.00
C3a      0.62213    0.92412    0.44833   1.00
H1       0.63702    0.92950    0.47562   1.00
C3b      0.62422    0.90595    0.37996   1.00
C4       0.64400    0.91514    0.41460   1.00
O3       0.68667    0.84494    0.42709   1.00
C5       0.55220    0.96042    0.49514   1.00
H2       0.57891    0.97884    0.49822   1.00
C5       0.53174    0.95739    0.53453   1.00
H2       0.53226    0.97449    0.47363   1.00
H2       0.55432    0.95357    0.55758   1.00
H2       0.51407    0.93011    0.53424   1.00
C5       0.50582    0.99294    0.54359   1.00
H2       0.52324    1.02014    0.54071   1.00
C5       0.48953    0.99056    0.58539   1.00
H2       0.48007    0.99431    0.52359   1.00
C5       0.65517    0.80064    0.46979   1.00
H2       0.67715    0.77693    0.46644   1.00
H2       0.63452    0.79801    0.44481   1.00
C5       0.63300    0.79654    0.50864   1.00
C5       0.61725    0.75469    0.51295   1.00
H2       0.85786    1.09127    0.35061   1.00
C5       0.85412    1.08744    0.28664   1.00
H2       0.80823    1.09907    0.32998   1.00
C5       0.69837    0.76153    0.24171   1.00
H2       0.67051    0.81645    0.22358   1.00
H2       0.71793    0.82218    0.24942   1.00
C5       0.46997    1.02956    0.59608   1.00
H2       0.46711    0.96606    0.58717   1.00
H2       0.51437    0.98442    0.60663   1.00
H2       0.60102    0.74605    0.48524   1.00
H2       0.64261    0.73376    0.51793   1.00
C5       0.58917    0.75279    0.54797   1.00
H2       0.86616    1.05856    0.27537   1.00
H2       0.83071    1.09857    0.26581   1.00
H2       0.87874    1.10971    0.28858   1.00
H2       0.68320    0.74337    0.26508   1.00
H2       0.68729    0.75245    0.21170   1.00
H2       0.73121    0.75656    0.24338   1.00
H2       0.45389    1.04154    0.56956   1.00
H2       0.44836    1.02468    0.62088   1.00
H2       0.49319    1.05132    0.60574   1.00
H2       0.55807    0.75830    0.53755   1.00
H2       0.59098    0.72271    0.56201   1.00
H2       0.59766    0.77597    0.57026   1.00
C5       0.46355    0.53282    0.53212   1.00
H2       0.43500    0.51755    0.53325   1.00
H2       0.46318    0.55410    0.55657   1.00
C5       0.49672    0.50306    0.53776   1.00
C5       0.50261    0.49377    0.58131   1.00
H2       0.52444    0.51485    0.52560   1.00
O3       0.48409    0.68500    0.39945   1.00
C4       0.41460    0.64400    0.41486   1.00
C3c      0.42160    0.62257    0.44908   1.00
H1       0.42704    0.63775    0.47619   1.00
C3d      0.40703    0.62365    0.37996   1.00
C3       0.42228    0.58146    0.44885   1.00
O2       0.42456    0.56252    0.48419   1.00
C3       0.40842    0.58273    0.37947   1.00
H1       0.40381    0.56843    0.35174   1.00
C2       0.41588    0.56061    0.41372   1.00
C5       0.49325    0.68621    0.35930   1.00
H2       0.49751    0.71662    0.34857   1.00
H2       0.46977    0.67234    0.34150   1.00
C5       0.53117    0.66371    0.35344   1.00
H2       0.52726    0.63363    0.36517   1.00
H2       0.55448    0.67802    0.37105   1.00
C5       0.54262    0.66238    0.31002   1.00
H2       0.54631    0.69232    0.29805   1.00
H2       0.52000    0.64689    0.29262   1.00
C5       0.58157    0.64055    0.30505   1.00
C5       0.36346    0.65395    0.33979   1.00
C5       0.46398    0.55430    0.49316   1.00
H2       0.35355    0.67412    0.36320   1.00
H2       0.34396    0.62788    0.33952   1.00
H2       0.48090    0.58200    0.49573   1.00
H2       0.47847    0.53605    0.47029   1.00
H2       0.48978    0.47470    0.52319   1.00
H2       0.32013    0.72253    0.31674   1.00
H2       0.29620    0.67737    0.30254   1.00
C2       0.41653    0.76895    0.41280   1.00
C3       0.38184    0.74903    0.42264   1.00
O2       0.34648    0.76826    0.42209   1.00
C3       0.45061    0.74674    0.40567   1.00
H1       0.47786    0.76115    0.39907   1.00
C3a      0.38167    0.70787    0.42412   1.00
H1       0.35438    0.69298    0.42950   1.00
C3b      0.45004    0.70578    0.40595   1.00
C4       0.41540    0.68600    0.41514   1.00
O3       0.40291    0.64333    0.34494   1.00
C5       0.33486    0.77780    0.46042   1.00
H2       0.33178    0.75109    0.47884   1.00
C5       0.29547    0.79826    0.45739   1.00
H2       0.35637    0.79774    0.47449   1.00
H2       0.27242    0.77568    0.45357   1.00
H2       0.29576    0.81593    0.43011   1.00
C5       0.28641    0.82418    0.49294   1.00
H2       0.28929    0.80676    0.52014   1.00
C5       0.24461    0.84047    0.49056   1.00
H2       0.30641    0.84993    0.49431   1.00
C5       0.36021    0.67483    0.30064   1.00
H2       0.36356    0.65285    0.27693   1.00
H2       0.38519    0.69548    0.29801   1.00
C5       0.32136    0.69700    0.29654   1.00
C5       0.31705    0.71275    0.25469   1.00
H2       0.47939    0.47214    0.59127   1.00
C5       0.54336    0.47588    0.58744   1.00
H2       0.50002    0.52177    0.59907   1.00
C5       0.58829    0.63163    0.26153   1.00
H2       0.60642    0.65949    0.31645   1.00
H2       0.58058    0.61207    0.32218   1.00
C5       0.23392    0.86003    0.52956   1.00
H2       0.24283    0.86289    0.46606   1.00
H2       0.22337    0.81563    0.48442   1.00
H2       0.34476    0.72898    0.24605   1.00
H2       0.31207    0.68739    0.23376   1.00
C5       0.28203    0.74083    0.25279   1.00
H2       0.55463    0.46384    0.55856   1.00
H2       0.56419    0.49929    0.59857   1.00
H2       0.54142    0.45126    0.60971   1.00
H2       0.56492    0.64680    0.24337   1.00
H2       0.61830    0.64271    0.25245   1.00
H2       0.58662    0.59879    0.25656   1.00
H2       0.26044    0.87611    0.54154   1.00
H2       0.20912    0.88164    0.52468   1.00
H2       0.22426    0.83681    0.55132   1.00
H2       0.29245    0.77193    0.25830   1.00
H2       0.26799    0.73902    0.22271   1.00
H2       0.25974    0.73234    0.27597   1.00
C5       0.53212    0.96355    0.03282   1.00
H2       0.53325    0.93500    0.01755   1.00
H2       0.55657    0.96318    0.05410   1.00
C5       0.53776    0.99672    0.00306   1.00
C5       0.58131    1.00261    -0.00623   1.00
H2       0.52560    1.02444    0.01485   1.00
O3       0.39945    0.98409    0.18500   1.00
C4       0.41486    0.91460    0.14400   1.00
C3c      0.44908    0.92160    0.12257   1.00
H1       0.47619    0.92704    0.13775   1.00
C3d      0.37996    0.90703    0.12365   1.00
C3       0.44885    0.92228    0.08146   1.00
O2       0.48419    0.92456    0.06252   1.00
C3       0.37947    0.90842    0.08273   1.00
H1       0.35174    0.90381    0.06843   1.00
C2       0.41372    0.91588    0.06061   1.00
C5       0.35930    0.99325    0.18621   1.00
H2       0.34857    0.99751    0.21662   1.00
H2       0.34150    0.96977    0.17234   1.00
C5       0.35344    1.03117    0.16371   1.00
H2       0.36517    1.02726    0.13363   1.00
H2       0.37105    1.05448    0.17802   1.00
C5       0.31002    1.04262    0.16238   1.00
H2       0.29805    1.04631    0.19232   1.00
H2       0.29262    1.02000    0.14689   1.00
C5       0.30505    1.08157    0.14055   1.00
C5       0.33979    0.86346    0.15395   1.00
C5       0.49316    0.96398    0.05430   1.00
H2       0.36320    0.85355    0.17412   1.00
H2       0.33952    0.84396    0.12788   1.00
H2       0.49573    0.98090    0.08200   1.00
H2       0.47029    0.97847    0.03605   1.00
H2       0.52319    0.98978    -0.02530   1.00
H2       0.31674    0.82013    0.22253   1.00
H2       0.30254    0.79620    0.17737   1.00
C2       0.41280    0.91653    0.26895   1.00
C3       0.42264    0.88184    0.24903   1.00
O2       0.42209    0.84648    0.26826   1.00
C3       0.40567    0.95061    0.24674   1.00
H1       0.39907    0.97786    0.26115   1.00
C3a      0.42412    0.88167    0.20787   1.00
H1       0.42950    0.85438    0.19298   1.00
C3b      0.40595    0.95004    0.20578   1.00
C4       0.41514    0.91540    0.18600   1.00
O3       0.34494    0.90291    0.14333   1.00
C5       0.46042    0.83486    0.27780   1.00
H2       0.47884    0.83178    0.25109   1.00
C5       0.45739    0.79547    0.29826   1.00
H2       0.47449    0.85637    0.29774   1.00
H2       0.45357    0.77242    0.27568   1.00
H2       0.43011    0.79576    0.31593   1.00
C5       0.49294    0.78641    0.32418   1.00
H2       0.52014    0.78929    0.30676   1.00
C5       0.49056    0.74461    0.34047   1.00
H2       0.49431    0.80641    0.34993   1.00
C5       0.30064    0.86021    0.17483   1.00
H2       0.27693    0.86356    0.15285   1.00
H2       0.29801    0.88519    0.19548   1.00
C5       0.29654    0.82136    0.19700   1.00
C5       0.25469    0.81705    0.21275   1.00
H2       0.59127    0.97939    -0.02786   1.00
C5       0.58744    1.04336    -0.02412   1.00
H2       0.59907    1.00002    0.02177   1.00
C5       0.26153    1.08829    0.13163   1.00
H2       0.31645    1.10642    0.15949   1.00
H2       0.32218    1.08058    0.11207   1.00
C5       0.52956    0.73392    0.36003   1.00
H2       0.46606    0.74283    0.36289   1.00
H2       0.48442    0.72337    0.31563   1.00
H2       0.24605    0.84476    0.22898   1.00
H2       0.23376    0.81207    0.18739   1.00
C5       0.25279    0.78203    0.24083   1.00
H2       0.55856    1.05463    -0.03616   1.00
H2       0.59857    1.06419    -0.00071   1.00
H2       0.60971    1.04142    -0.04874   1.00
H2       0.24337    1.06492    0.14680   1.00
H2       0.25245    1.11830    0.14271   1.00
H2       0.25656    1.08662    0.09879   1.00
H2       0.54154    0.76044    0.37611   1.00
H2       0.52468    0.70912    0.38164   1.00
H2       0.55132    0.72426    0.33681   1.00
H2       0.25830    0.79245    0.27193   1.00
H2       0.22271    0.76799    0.23902   1.00
H2       0.27597    0.75974    0.23234   1.00
C5       1.03212    0.36645    0.79718   1.00
H2       1.03325    0.39500    0.81245   1.00
H2       1.05657    0.36682    0.77590   1.00
C5       1.03776    0.33328    0.82694   1.00
C5       1.08131    0.32739    0.83623   1.00
H2       1.02560    0.30556    0.81515   1.00
O3       0.89945    0.34591    0.64500   1.00
C4       0.91486    0.41540    0.68600   1.00
C3c      0.94908    0.40840    0.70743   1.00
H1       0.97619    0.40296    0.69225   1.00
C3d      0.87996    0.42297    0.70635   1.00
C3       0.94885    0.40772    0.74854   1.00
O2       0.98419    0.40544    0.76748   1.00
C3       0.87947    0.42158    0.74727   1.00
H1       0.85174    0.42619    0.76157   1.00
C2       0.91372    0.41412    0.76939   1.00
C5       0.85930    0.33675    0.64379   1.00
H2       0.84857    0.33249    0.61338   1.00
H2       0.84150    0.36023    0.65766   1.00
C5       0.85344    0.29883    0.66629   1.00
H2       0.86517    0.30274    0.69637   1.00
H2       0.87105    0.27552    0.65198   1.00
C5       0.81002    0.28738    0.66762   1.00
H2       0.79805    0.28369    0.63768   1.00
H2       0.79262    0.31000    0.68311   1.00
C5       0.80505    0.24843    0.68945   1.00
C5       0.83979    0.46654    0.67605   1.00
C5       0.99316    0.36602    0.77570   1.00
H2       0.86320    0.47645    0.65588   1.00
H2       0.83952    0.48604    0.70212   1.00
H2       0.99573    0.34910    0.74800   1.00
H2       0.97029    0.35153    0.79395   1.00
H2       1.02319    0.34022    0.85530   1.00
H2       0.81674    0.50987    0.60747   1.00
H2       0.80254    0.53380    0.65263   1.00
C2       0.91280    0.41347    0.56105   1.00
C3       0.92264    0.44816    0.58097   1.00
O2       0.92209    0.48352    0.56174   1.00
C3       0.90567    0.37939    0.58326   1.00
H1       0.89907    0.35214    0.56885   1.00
C3a      0.92412    0.44833    0.62213   1.00
H1       0.92950    0.47562    0.63702   1.00
C3b      0.90595    0.37996    0.62422   1.00
C4       0.91514    0.41460    0.64400   1.00
O3       0.84494    0.42709    0.68667   1.00
C5       0.96042    0.49514    0.55220   1.00
H2       0.97884    0.49822    0.57891   1.00
C5       0.95739    0.53453    0.53174   1.00
H2       0.97449    0.47363    0.53226   1.00
H2       0.95357    0.55758    0.55432   1.00
H2       0.93011    0.53424    0.51407   1.00
C5       0.99294    0.54359    0.50582   1.00
H2       1.02014    0.54071    0.52324   1.00
C5       0.99056    0.58539    0.48953   1.00
H2       0.99431    0.52359    0.48007   1.00
C5       0.80064    0.46979    0.65517   1.00
H2       0.77693    0.46644    0.67715   1.00
H2       0.79801    0.44481    0.63452   1.00
C5       0.79654    0.50864    0.63300   1.00
C5       0.75469    0.51295    0.61725   1.00
H2       1.09127    0.35061    0.85786   1.00
C5       1.08744    0.28664    0.85412   1.00
H2       1.09907    0.32998    0.80823   1.00
C5       0.76153    0.24171    0.69837   1.00
H2       0.81645    0.22358    0.67051   1.00
H2       0.82218    0.24942    0.71793   1.00
C5       1.02956    0.59608    0.46997   1.00
H2       0.96606    0.58717    0.46711   1.00
H2       0.98442    0.60663    0.51437   1.00
H2       0.74605    0.48524    0.60102   1.00
H2       0.73376    0.51793    0.64261   1.00
C5       0.75279    0.54797    0.58917   1.00
H2       1.05856    0.27537    0.86616   1.00
H2       1.09857    0.26581    0.83071   1.00
H2       1.10971    0.28858    0.87874   1.00
H2       0.74337    0.26508    0.68320   1.00
H2       0.75245    0.21170    0.68729   1.00
H2       0.75656    0.24338    0.73121   1.00
H2       1.04154    0.56956    0.45389   1.00
H2       1.02468    0.62088    0.44836   1.00
H2       1.05132    0.60574    0.49319   1.00
H2       0.75830    0.53755    0.55807   1.00
H2       0.72271    0.56201    0.59098   1.00
H2       0.77597    0.57026    0.59766   1.00
C5       0.86645    0.79718    0.53212   1.00
H2       0.89500    0.81245    0.53325   1.00
H2       0.86682    0.77590    0.55657   1.00
C5       0.83328    0.82694    0.53776   1.00
C5       0.82739    0.83623    0.58131   1.00
H2       0.80556    0.81515    0.52560   1.00
O3       0.84591    0.64500    0.39945   1.00
C4       0.91540    0.68600    0.41486   1.00
C3c      0.90840    0.70743    0.44908   1.00
H1       0.90296    0.69225    0.47619   1.00
C3d      0.92297    0.70635    0.37996   1.00
C3       0.90772    0.74854    0.44885   1.00
O2       0.90544    0.76748    0.48419   1.00
C3       0.92158    0.74727    0.37947   1.00
H1       0.92619    0.76157    0.35174   1.00
C2       0.91412    0.76939    0.41372   1.00
C5       0.83675    0.64379    0.35930   1.00
H2       0.83249    0.61338    0.34857   1.00
H2       0.86023    0.65766    0.34150   1.00
C5       0.79883    0.66629    0.35344   1.00
H2       0.80274    0.69637    0.36517   1.00
H2       0.77552    0.65198    0.37105   1.00
C5       0.78738    0.66762    0.31002   1.00
H2       0.78369    0.63768    0.29805   1.00
H2       0.81000    0.68311    0.29262   1.00
C5       0.74843    0.68945    0.30505   1.00
C5       0.96654    0.67605    0.33979   1.00
C5       0.86602    0.77570    0.49316   1.00
H2       0.97645    0.65588    0.36320   1.00
H2       0.98604    0.70212    0.33952   1.00
H2       0.84910    0.74800    0.49573   1.00
H2       0.85153    0.79395    0.47029   1.00
H2       0.84022    0.85530    0.52319   1.00
H2       1.00987    0.60747    0.31674   1.00
H2       1.03380    0.65263    0.30254   1.00
C2       0.91347    0.56105    0.41280   1.00
C3       0.94816    0.58097    0.42264   1.00
O2       0.98352    0.56174    0.42209   1.00
C3       0.87939    0.58326    0.40567   1.00
H1       0.85214    0.56885    0.39907   1.00
C3a      0.94833    0.62213    0.42412   1.00
H1       0.97562    0.63702    0.42950   1.00
C3b      0.87996    0.62422    0.40595   1.00
C4       0.91460    0.64400    0.41514   1.00
O3       0.92709    0.68667    0.34494   1.00
C5       0.99514    0.55220    0.46042   1.00
H2       0.99822    0.57891    0.47884   1.00
C5       1.03453    0.53174    0.45739   1.00
H2       0.97363    0.53226    0.47449   1.00
H2       1.05758    0.55432    0.45357   1.00
H2       1.03424    0.51407    0.43011   1.00
C5       1.04359    0.50582    0.49294   1.00
H2       1.04071    0.52324    0.52014   1.00
C5       1.08539    0.48953    0.49056   1.00
H2       1.02359    0.48007    0.49431   1.00
C5       0.96979    0.65517    0.30064   1.00
H2       0.96644    0.67715    0.27693   1.00
H2       0.94481    0.63452    0.29801   1.00
C5       1.00864    0.63300    0.29654   1.00
C5       1.01295    0.61725    0.25469   1.00
H2       0.85061    0.85786    0.59127   1.00
C5       0.78664    0.85412    0.58744   1.00
H2       0.82998    0.80823    0.59907   1.00
C5       0.74171    0.69837    0.26153   1.00
H2       0.72358    0.67051    0.31645   1.00
H2       0.74942    0.71793    0.32218   1.00
C5       1.09608    0.46997    0.52956   1.00
H2       1.08717    0.46711    0.46606   1.00
H2       1.10663    0.51437    0.48442   1.00
H2       0.98524    0.60102    0.24605   1.00
H2       1.01793    0.64261    0.23376   1.00
C5       1.04797    0.58917    0.25279   1.00
H2       0.77537    0.86616    0.55856   1.00
H2       0.76581    0.83071    0.59857   1.00
H2       0.78858    0.87874    0.60971   1.00
H2       0.76508    0.68320    0.24337   1.00
H2       0.71170    0.68729    0.25245   1.00
H2       0.74338    0.73121    0.25656   1.00
H2       1.06956    0.45389    0.54154   1.00
H2       1.12088    0.44836    0.52468   1.00
H2       1.10574    0.49319    0.55132   1.00
H2       1.03755    0.55807    0.25830   1.00
H2       1.06201    0.59098    0.22271   1.00
H2       1.07026    0.59766    0.27597   1.00
C5       0.53282    0.53212    0.46355   1.00
H2       0.51755    0.53325    0.43500   1.00
H2       0.55410    0.55657    0.46318   1.00
C5       0.50306    0.53776    0.49672   1.00
C5       0.49377    0.58131    0.50261   1.00
H2       0.51485    0.52560    0.52444   1.00
O3       0.68500    0.39945    0.48409   1.00
C4       0.64400    0.41486    0.41460   1.00
C3c      0.62257    0.44908    0.42160   1.00
H1       0.63775    0.47619    0.42704   1.00
C3d      0.62365    0.37996    0.40703   1.00
C3       0.58146    0.44885    0.42228   1.00
O2       0.56252    0.48419    0.42456   1.00
C3       0.58273    0.37947    0.40842   1.00
H1       0.56843    0.35174    0.40381   1.00
C2       0.56061    0.41372    0.41588   1.00
C5       0.68621    0.35930    0.49325   1.00
H2       0.71662    0.34857    0.49751   1.00
H2       0.67234    0.34150    0.46977   1.00
C5       0.66371    0.35344    0.53117   1.00
H2       0.63363    0.36517    0.52726   1.00
H2       0.67802    0.37105    0.55448   1.00
C5       0.66238    0.31002    0.54262   1.00
H2       0.69232    0.29805    0.54631   1.00
H2       0.64689    0.29262    0.52000   1.00
C5       0.64055    0.30505    0.58157   1.00
C5       0.65395    0.33979    0.36346   1.00
C5       0.55430    0.49316    0.46398   1.00
H2       0.67412    0.36320    0.35355   1.00
H2       0.62788    0.33952    0.34396   1.00
H2       0.58200    0.49573    0.48090   1.00
H2       0.53605    0.47029    0.47847   1.00
H2       0.47470    0.52319    0.48978   1.00
H2       0.72253    0.31674    0.32013   1.00
H2       0.67737    0.30254    0.29620   1.00
C2       0.76895    0.41280    0.41653   1.00
C3       0.74903    0.42264    0.38184   1.00
O2       0.76826    0.42209    0.34648   1.00
C3       0.74674    0.40567    0.45061   1.00
H1       0.76115    0.39907    0.47786   1.00
C3a      0.70787    0.42412    0.38167   1.00
H1       0.69298    0.42950    0.35438   1.00
C3b      0.70578    0.40595    0.45004   1.00
C4       0.68600    0.41514    0.41540   1.00
O3       0.64333    0.34494    0.40291   1.00
C5       0.77780    0.46042    0.33486   1.00
H2       0.75109    0.47884    0.33178   1.00
C5       0.79826    0.45739    0.29547   1.00
H2       0.79774    0.47449    0.35637   1.00
H2       0.77568    0.45357    0.27242   1.00
H2       0.81593    0.43011    0.29576   1.00
C5       0.82418    0.49294    0.28641   1.00
H2       0.80676    0.52014    0.28929   1.00
C5       0.84047    0.49056    0.24461   1.00
H2       0.84993    0.49431    0.30641   1.00
C5       0.67483    0.30064    0.36021   1.00
H2       0.65285    0.27693    0.36356   1.00
H2       0.69548    0.29801    0.38519   1.00
C5       0.69700    0.29654    0.32136   1.00
C5       0.71275    0.25469    0.31705   1.00
H2       0.47214    0.59127    0.47939   1.00
C5       0.47588    0.58744    0.54336   1.00
H2       0.52177    0.59907    0.50002   1.00
C5       0.63163    0.26153    0.58829   1.00
H2       0.65949    0.31645    0.60642   1.00
H2       0.61207    0.32218    0.58058   1.00
C5       0.86003    0.52956    0.23392   1.00
H2       0.86289    0.46606    0.24283   1.00
H2       0.81563    0.48442    0.22337   1.00
H2       0.72898    0.24605    0.34476   1.00
H2       0.68739    0.23376    0.31207   1.00
C5       0.74083    0.25279    0.28203   1.00
H2       0.46384    0.55856    0.55463   1.00
H2       0.49929    0.59857    0.56419   1.00
H2       0.45126    0.60971    0.54142   1.00
H2       0.64680    0.24337    0.56492   1.00
H2       0.64271    0.25245    0.61830   1.00
H2       0.59879    0.25656    0.58662   1.00
H2       0.87611    0.54154    0.26044   1.00
H2       0.88164    0.52468    0.20912   1.00
H2       0.83681    0.55132    0.22426   1.00
H2       0.77193    0.25830    0.29245   1.00
H2       0.73902    0.22271    0.26799   1.00
H2       0.73234    0.27597    0.25974   1.00
C5       1.29718    0.53212    0.36645   1.00
H2       1.31245    0.53325    0.39500   1.00
H2       1.27590    0.55657    0.36682   1.00
C5       1.32694    0.53776    0.33328   1.00
C5       1.33623    0.58131    0.32739   1.00
H2       1.31515    0.52560    0.30556   1.00
O3       1.14500    0.39945    0.34591   1.00
C4       1.18600    0.41486    0.41540   1.00
C3c      1.20743    0.44908    0.40840   1.00
H1       1.19225    0.47619    0.40296   1.00
C3d      1.20635    0.37996    0.42297   1.00
C3       1.24854    0.44885    0.40772   1.00
O2       1.26748    0.48419    0.40544   1.00
C3       1.24727    0.37947    0.42158   1.00
H1       1.26157    0.35174    0.42619   1.00
C2       1.26939    0.41372    0.41412   1.00
C5       1.14379    0.35930    0.33675   1.00
H2       1.11338    0.34857    0.33249   1.00
H2       1.15766    0.34150    0.36023   1.00
C5       1.16629    0.35344    0.29883   1.00
H2       1.19637    0.36517    0.30274   1.00
H2       1.15198    0.37105    0.27552   1.00
C5       1.16762    0.31002    0.28738   1.00
H2       1.13768    0.29805    0.28369   1.00
H2       1.18311    0.29262    0.31000   1.00
C5       1.18945    0.30505    0.24843   1.00
C5       1.17605    0.33979    0.46654   1.00
C5       1.27570    0.49316    0.36602   1.00
H2       1.15588    0.36320    0.47645   1.00
H2       1.20212    0.33952    0.48604   1.00
H2       1.24800    0.49573    0.34910   1.00
H2       1.29395    0.47029    0.35153   1.00
H2       1.35530    0.52319    0.34022   1.00
H2       1.10747    0.31674    0.50987   1.00
H2       1.15263    0.30254    0.53380   1.00
C2       1.06105    0.41280    0.41347   1.00
C3       1.08097    0.42264    0.44816   1.00
O2       1.06174    0.42209    0.48352   1.00
C3       1.08326    0.40567    0.37939   1.00
H1       1.06885    0.39907    0.35214   1.00
C3a      1.12213    0.42412    0.44833   1.00
H1       1.13702    0.42950    0.47562   1.00
C3b      1.12422    0.40595    0.37996   1.00
C4       1.14400    0.41514    0.41460   1.00
O3       1.18667    0.34494    0.42709   1.00
C5       1.05220    0.46042    0.49514   1.00
H2       1.07891    0.47884    0.49822   1.00
C5       1.03174    0.45739    0.53453   1.00
H2       1.03226    0.47449    0.47363   1.00
H2       1.05432    0.45357    0.55758   1.00
H2       1.01407    0.43011    0.53424   1.00
C5       1.00582    0.49294    0.54359   1.00
H2       1.02324    0.52014    0.54071   1.00
C5       0.98953    0.49056    0.58539   1.00
H2       0.98007    0.49431    0.52359   1.00
C5       1.15517    0.30064    0.46979   1.00
H2       1.17715    0.27693    0.46644   1.00
H2       1.13452    0.29801    0.44481   1.00
C5       1.13300    0.29654    0.50864   1.00
C5       1.11725    0.25469    0.51295   1.00
H2       1.35786    0.59127    0.35061   1.00
C5       1.35412    0.58744    0.28664   1.00
H2       1.30823    0.59907    0.32998   1.00
C5       1.19837    0.26153    0.24171   1.00
H2       1.17051    0.31645    0.22358   1.00
H2       1.21793    0.32218    0.24942   1.00
C5       0.96997    0.52956    0.59608   1.00
H2       0.96711    0.46606    0.58717   1.00
H2       1.01437    0.48442    0.60663   1.00
H2       1.10102    0.24605    0.48524   1.00
H2       1.14261    0.23376    0.51793   1.00
C5       1.08917    0.25279    0.54797   1.00
H2       1.36616    0.55856    0.27537   1.00
H2       1.33071    0.59857    0.26581   1.00
H2       1.37874    0.60971    0.28858   1.00
H2       1.18320    0.24337    0.26508   1.00
H2       1.18729    0.25245    0.21170   1.00
H2       1.23121    0.25656    0.24338   1.00
H2       0.95389    0.54154    0.56956   1.00
H2       0.94836    0.52468    0.62088   1.00
H2       0.99319    0.55132    0.60574   1.00
H2       1.05807    0.25830    0.53755   1.00
H2       1.09098    0.22271    0.56201   1.00
H2       1.09766    0.27597    0.57026   1.00
C5       0.96355    0.03282    0.53212   1.00
H2       0.93500    0.01755    0.53325   1.00
H2       0.96318    0.05410    0.55657   1.00
C5       0.99672    0.00306    0.53776   1.00
C5       1.00261    -0.00623   0.58131   1.00
H2       1.02444    0.01485    0.52560   1.00
O3       0.98409    0.18500    0.39945   1.00
C4       0.91460    0.14400    0.41486   1.00
C3c      0.92160    0.12257    0.44908   1.00
H1       0.92704    0.13775    0.47619   1.00
C3d      0.90703    0.12365    0.37996   1.00
C3       0.92228    0.08146    0.44885   1.00
O2       0.92456    0.06252    0.48419   1.00
C3       0.90842    0.08273    0.37947   1.00
H1       0.90381    0.06843    0.35174   1.00
C2       0.91588    0.06061    0.41372   1.00
C5       0.99325    0.18621    0.35930   1.00
H2       0.99751    0.21662    0.34857   1.00
H2       0.96977    0.17234    0.34150   1.00
C5       1.03117    0.16371    0.35344   1.00
H2       1.02726    0.13363    0.36517   1.00
H2       1.05448    0.17802    0.37105   1.00
C5       1.04262    0.16238    0.31002   1.00
H2       1.04631    0.19232    0.29805   1.00
H2       1.02000    0.14689    0.29262   1.00
C5       1.08157    0.14055    0.30505   1.00
C5       0.86346    0.15395    0.33979   1.00
C5       0.96398    0.05430    0.49316   1.00
H2       0.85355    0.17412    0.36320   1.00
H2       0.84396    0.12788    0.33952   1.00
H2       0.98090    0.08200    0.49573   1.00
H2       0.97847    0.03605    0.47029   1.00
H2       0.98978    -0.02530   0.52319   1.00
H2       0.82013    0.22253    0.31674   1.00
H2       0.79620    0.17737    0.30254   1.00
C2       0.91653    0.26895    0.41280   1.00
C3       0.88184    0.24903    0.42264   1.00
O2       0.84648    0.26826    0.42209   1.00
C3       0.95061    0.24674    0.40567   1.00
H1       0.97786    0.26115    0.39907   1.00
C3a      0.88167    0.20787    0.42412   1.00
H1       0.85438    0.19298    0.42950   1.00
C3b      0.95004    0.20578    0.40595   1.00
C4       0.91540    0.18600    0.41514   1.00
O3       0.90291    0.14333    0.34494   1.00
C5       0.83486    0.27780    0.46042   1.00
H2       0.83178    0.25109    0.47884   1.00
C5       0.79547    0.29826    0.45739   1.00
H2       0.85637    0.29774    0.47449   1.00
H2       0.77242    0.27568    0.45357   1.00
H2       0.79576    0.31593    0.43011   1.00
C5       0.78641    0.32418    0.49294   1.00
H2       0.78929    0.30676    0.52014   1.00
C5       0.74461    0.34047    0.49056   1.00
H2       0.80641    0.34993    0.49431   1.00
C5       0.86021    0.17483    0.30064   1.00
H2       0.86356    0.15285    0.27693   1.00
H2       0.88519    0.19548    0.29801   1.00
C5       0.82136    0.19700    0.29654   1.00
C5       0.81705    0.21275    0.25469   1.00
H2       0.97939    -0.02786   0.59127   1.00
C5       1.04336    -0.02412   0.58744   1.00
H2       1.00002    0.02177    0.59907   1.00
C5       1.08829    0.13163    0.26153   1.00
H2       1.10642    0.15949    0.31645   1.00
H2       1.08058    0.11207    0.32218   1.00
C5       0.73392    0.36003    0.52956   1.00
H2       0.74283    0.36289    0.46606   1.00
H2       0.72337    0.31563    0.48442   1.00
H2       0.84476    0.22898    0.24605   1.00
H2       0.81207    0.18739    0.23376   1.00
C5       0.78203    0.24083    0.25279   1.00
H2       1.05463    -0.03616   0.55856   1.00
H2       1.06419    -0.00071   0.59857   1.00
H2       1.04142    -0.04874   0.60971   1.00
H2       1.06492    0.14680    0.24337   1.00
H2       1.11830    0.14271    0.25245   1.00
H2       1.08662    0.09879    0.25656   1.00
H2       0.76044    0.37611    0.54154   1.00
H2       0.70912    0.38164    0.52468   1.00
H2       0.72426    0.33681    0.55132   1.00
H2       0.79245    0.27193    0.25830   1.00
H2       0.76799    0.23902    0.22271   1.00
H2       0.75974    0.23234    0.27597   1.00
C5       1.03212    0.46355    0.03282   1.00
H2       1.03325    0.43500    0.01755   1.00
H2       1.05657    0.46318    0.05410   1.00
C5       1.03776    0.49672    0.00306   1.00
C5       1.08131    0.50261    -0.00623   1.00
H2       1.02560    0.52444    0.01485   1.00
O3       0.89945    0.48409    0.18500   1.00
C4       0.91486    0.41460    0.14400   1.00
C3c      0.94908    0.42160    0.12257   1.00
H1       0.97619    0.42704    0.13775   1.00
C3d      0.87996    0.40703    0.12365   1.00
C3       0.94885    0.42228    0.08146   1.00
O2       0.98419    0.42456    0.06252   1.00
C3       0.87947    0.40842    0.08273   1.00
H1       0.85174    0.40381    0.06843   1.00
C2       0.91372    0.41588    0.06061   1.00
C5       0.85930    0.49325    0.18621   1.00
H2       0.84857    0.49751    0.21662   1.00
H2       0.84150    0.46977    0.17234   1.00
C5       0.85344    0.53117    0.16371   1.00
H2       0.86517    0.52726    0.13363   1.00
H2       0.87105    0.55448    0.17802   1.00
C5       0.81002    0.54262    0.16238   1.00
H2       0.79805    0.54631    0.19232   1.00
H2       0.79262    0.52000    0.14689   1.00
C5       0.80505    0.58157    0.14055   1.00
C5       0.83979    0.36346    0.15395   1.00
C5       0.99316    0.46398    0.05430   1.00
H2       0.86320    0.35355    0.17412   1.00
H2       0.83952    0.34396    0.12788   1.00
H2       0.99573    0.48090    0.08200   1.00
H2       0.97029    0.47847    0.03605   1.00
H2       1.02319    0.48978    -0.02530   1.00
H2       0.81674    0.32013    0.22253   1.00
H2       0.80254    0.29620    0.17737   1.00
C2       0.91280    0.41653    0.26895   1.00
C3       0.92264    0.38184    0.24903   1.00
O2       0.92209    0.34648    0.26826   1.00
C3       0.90567    0.45061    0.24674   1.00
H1       0.89907    0.47786    0.26115   1.00
C3a      0.92412    0.38167    0.20787   1.00
H1       0.92950    0.35438    0.19298   1.00
C3b      0.90595    0.45004    0.20578   1.00
C4       0.91514    0.41540    0.18600   1.00
O3       0.84494    0.40291    0.14333   1.00
C5       0.96042    0.33486    0.27780   1.00
H2       0.97884    0.33178    0.25109   1.00
C5       0.95739    0.29547    0.29826   1.00
H2       0.97449    0.35637    0.29774   1.00
H2       0.95357    0.27242    0.27568   1.00
H2       0.93011    0.29576    0.31593   1.00
C5       0.99294    0.28641    0.32418   1.00
H2       1.02014    0.28929    0.30676   1.00
C5       0.99056    0.24461    0.34047   1.00
H2       0.99431    0.30641    0.34993   1.00
C5       0.80064    0.36021    0.17483   1.00
H2       0.77693    0.36356    0.15285   1.00
H2       0.79801    0.38519    0.19548   1.00
C5       0.79654    0.32136    0.19700   1.00
C5       0.75469    0.31705    0.21275   1.00
H2       1.09127    0.47939    -0.02786   1.00
C5       1.08744    0.54336    -0.02412   1.00
H2       1.09907    0.50002    0.02177   1.00
C5       0.76153    0.58829    0.13163   1.00
H2       0.81645    0.60642    0.15949   1.00
H2       0.82218    0.58058    0.11207   1.00
C5       1.02956    0.23392    0.36003   1.00
H2       0.96606    0.24283    0.36289   1.00
H2       0.98442    0.22337    0.31563   1.00
H2       0.74605    0.34476    0.22898   1.00
H2       0.73376    0.31207    0.18739   1.00
C5       0.75279    0.28203    0.24083   1.00
H2       1.05856    0.55463    -0.03616   1.00
H2       1.09857    0.56419    -0.00071   1.00
H2       1.10971    0.54142    -0.04874   1.00
H2       0.74337    0.56492    0.14680   1.00
H2       0.75245    0.61830    0.14271   1.00
H2       0.75656    0.58662    0.09879   1.00
H2       1.04154    0.26044    0.37611   1.00
H2       1.02468    0.20912    0.38164   1.00
H2       1.05132    0.22426    0.33681   1.00
H2       0.75830    0.29245    0.27193   1.00
H2       0.72271    0.26799    0.23902   1.00
H2       0.77597    0.25974    0.23234   1.00
