data_IRMOF10_SG202_interpen_Ligand10cp_label_k.

_audit_creation_method             'generated by an auxiliary program of Tobunporous'

_symmetry_space_group_name_H-M     'P 1'
_symmetry_Int_Tables_number        1
_symmetry_cell_setting             triclinic

_cell_length_a                    34.2800
_cell_length_b                    34.2800
_cell_length_c                    34.2800
_cell_angle_alpha                 90.0000
_cell_angle_beta                  90.0000
_cell_angle_gamma                 90.0000

loop_
_atom_site_label
_atom_site_fract_x
_atom_site_fract_y
_atom_site_fract_z
_atom_site_occupancy
O1       0.75000    0.75000    0.75000   1.00
Zn1      0.71720    0.78280    0.78280   1.00
Zn1      0.78280    0.71720    0.78280   1.00
Zn1      0.78280    0.78280    0.71720   1.00
Zn1      0.71720    0.71720    0.71720   1.00
O2       0.72650    0.77350    0.83820   1.00
O2       0.72650    0.83820    0.77350   1.00
O2       0.66180    0.77350    0.77350   1.00
O2       0.77350    0.72650    0.83820   1.00
O2       0.83820    0.72650    0.77350   1.00
O2       0.77350    0.66180    0.77350   1.00
O2       0.77350    0.83820    0.72650   1.00
O2       0.83820    0.77350    0.72650   1.00
O2       0.77350    0.77350    0.66180   1.00
O2       0.66180    0.72650    0.72650   1.00
O2       0.72650    0.66180    0.72650   1.00
O2       0.72650    0.72650    0.66180   1.00
C1       0.75000    0.75000    0.85520   1.00
C1       0.75000    0.85520    0.75000   1.00
C1       0.64480    0.75000    0.75000   1.00
C1       0.85520    0.75000    0.75000   1.00
C1       0.75000    0.64480    0.75000   1.00
C1       0.75000    0.75000    0.64480   1.00
O1       0.25000    0.25000    0.75000   1.00
Zn1      0.21720    0.28280    0.78280   1.00
Zn1      0.28280    0.21720    0.78280   1.00
Zn1      0.28280    0.28280    0.71720   1.00
Zn1      0.21720    0.21720    0.71720   1.00
O2       0.22650    0.27350    0.83820   1.00
O2       0.22650    0.33820    0.77350   1.00
O2       0.16180    0.27350    0.77350   1.00
O2       0.27350    0.22650    0.83820   1.00
O2       0.33820    0.22650    0.77350   1.00
O2       0.27350    0.16180    0.77350   1.00
O2       0.27350    0.33820    0.72650   1.00
O2       0.33820    0.27350    0.72650   1.00
O2       0.27350    0.27350    0.66180   1.00
O2       0.16180    0.22650    0.72650   1.00
O2       0.22650    0.16180    0.72650   1.00
O2       0.22650    0.22650    0.66180   1.00
C1       0.25000    0.25000    0.85520   1.00
C1       0.25000    0.35520    0.75000   1.00
C1       0.14480    0.25000    0.75000   1.00
C1       0.35520    0.25000    0.75000   1.00
C1       0.25000    0.14480    0.75000   1.00
C1       0.25000    0.25000    0.64480   1.00
O1       0.25000    0.75000    0.25000   1.00
Zn1      0.21720    0.78280    0.28280   1.00
Zn1      0.28280    0.71720    0.28280   1.00
Zn1      0.28280    0.78280    0.21720   1.00
Zn1      0.21720    0.71720    0.21720   1.00
O2       0.22650    0.77350    0.33820   1.00
O2       0.22650    0.83820    0.27350   1.00
O2       0.16180    0.77350    0.27350   1.00
O2       0.27350    0.72650    0.33820   1.00
O2       0.33820    0.72650    0.27350   1.00
O2       0.27350    0.66180    0.27350   1.00
O2       0.27350    0.83820    0.22650   1.00
O2       0.33820    0.77350    0.22650   1.00
O2       0.27350    0.77350    0.16180   1.00
O2       0.16180    0.72650    0.22650   1.00
O2       0.22650    0.66180    0.22650   1.00
O2       0.22650    0.72650    0.16180   1.00
C1       0.25000    0.75000    0.35520   1.00
C1       0.25000    0.85520    0.25000   1.00
C1       0.14480    0.75000    0.25000   1.00
C1       0.35520    0.75000    0.25000   1.00
C1       0.25000    0.64480    0.25000   1.00
C1       0.25000    0.75000    0.14480   1.00
O1       0.75000    0.25000    0.25000   1.00
Zn1      0.71720    0.28280    0.28280   1.00
Zn1      0.78280    0.21720    0.28280   1.00
Zn1      0.78280    0.28280    0.21720   1.00
Zn1      0.71720    0.21720    0.21720   1.00
O2       0.72650    0.27350    0.33820   1.00
O2       0.72650    0.33820    0.27350   1.00
O2       0.66180    0.27350    0.27350   1.00
O2       0.77350    0.22650    0.33820   1.00
O2       0.83820    0.22650    0.27350   1.00
O2       0.77350    0.16180    0.27350   1.00
O2       0.77350    0.33820    0.22650   1.00
O2       0.83820    0.27350    0.22650   1.00
O2       0.77350    0.27350    0.16180   1.00
O2       0.66180    0.22650    0.22650   1.00
O2       0.72650    0.16180    0.22650   1.00
O2       0.72650    0.22650    0.16180   1.00
C1       0.75000    0.25000    0.35520   1.00
C1       0.75000    0.35520    0.25000   1.00
C1       0.64480    0.25000    0.25000   1.00
C1       0.85520    0.25000    0.25000   1.00
C1       0.75000    0.14480    0.25000   1.00
C1       0.75000    0.25000    0.14480   1.00
O1       0.25000    0.25000    0.25000   1.00
Zn1      0.28280    0.21720    0.21720   1.00
Zn1      0.21720    0.28280    0.21720   1.00
Zn1      0.21720    0.21720    0.28280   1.00
Zn1      0.28280    0.28280    0.28280   1.00
O2       0.27350    0.22650    0.16180   1.00
O2       0.27350    0.16180    0.22650   1.00
O2       0.33820    0.22650    0.22650   1.00
O2       0.22650    0.27350    0.16180   1.00
O2       0.16180    0.27350    0.22650   1.00
O2       0.22650    0.33820    0.22650   1.00
O2       0.22650    0.16180    0.27350   1.00
O2       0.16180    0.22650    0.27350   1.00
O2       0.22650    0.22650    0.33820   1.00
O2       0.33820    0.27350    0.27350   1.00
O2       0.27350    0.33820    0.27350   1.00
O2       0.27350    0.27350    0.33820   1.00
C1       0.25000    0.25000    0.14480   1.00
C1       0.25000    0.14480    0.25000   1.00
C1       0.35520    0.25000    0.25000   1.00
C1       0.14480    0.25000    0.25000   1.00
C1       0.25000    0.35520    0.25000   1.00
C1       0.25000    0.25000    0.35520   1.00
O1       0.75000    0.75000    0.25000   1.00
Zn1      0.78280    0.71720    0.21720   1.00
Zn1      0.71720    0.78280    0.21720   1.00
Zn1      0.71720    0.71720    0.28280   1.00
Zn1      0.78280    0.78280    0.28280   1.00
O2       0.77350    0.72650    0.16180   1.00
O2       0.77350    0.66180    0.22650   1.00
O2       0.83820    0.72650    0.22650   1.00
O2       0.72650    0.77350    0.16180   1.00
O2       0.66180    0.77350    0.22650   1.00
O2       0.72650    0.83820    0.22650   1.00
O2       0.72650    0.66180    0.27350   1.00
O2       0.66180    0.72650    0.27350   1.00
O2       0.72650    0.72650    0.33820   1.00
O2       0.83820    0.77350    0.27350   1.00
O2       0.77350    0.83820    0.27350   1.00
O2       0.77350    0.77350    0.33820   1.00
C1       0.75000    0.75000    0.14480   1.00
C1       0.75000    0.64480    0.25000   1.00
C1       0.85520    0.75000    0.25000   1.00
C1       0.64480    0.75000    0.25000   1.00
C1       0.75000    0.85520    0.25000   1.00
C1       0.75000    0.75000    0.35520   1.00
O1       0.75000    0.25000    0.75000   1.00
Zn1      0.78280    0.21720    0.71720   1.00
Zn1      0.71720    0.28280    0.71720   1.00
Zn1      0.71720    0.21720    0.78280   1.00
Zn1      0.78280    0.28280    0.78280   1.00
O2       0.77350    0.22650    0.66180   1.00
O2       0.77350    0.16180    0.72650   1.00
O2       0.83820    0.22650    0.72650   1.00
O2       0.72650    0.27350    0.66180   1.00
O2       0.66180    0.27350    0.72650   1.00
O2       0.72650    0.33820    0.72650   1.00
O2       0.72650    0.16180    0.77350   1.00
O2       0.66180    0.22650    0.77350   1.00
O2       0.72650    0.22650    0.83820   1.00
O2       0.83820    0.27350    0.77350   1.00
O2       0.77350    0.33820    0.77350   1.00
O2       0.77350    0.27350    0.83820   1.00
C1       0.75000    0.25000    0.64480   1.00
C1       0.75000    0.14480    0.75000   1.00
C1       0.85520    0.25000    0.75000   1.00
C1       0.64480    0.25000    0.75000   1.00
C1       0.75000    0.35520    0.75000   1.00
C1       0.75000    0.25000    0.85520   1.00
O1       0.25000    0.75000    0.75000   1.00
Zn1      0.28280    0.71720    0.71720   1.00
Zn1      0.21720    0.78280    0.71720   1.00
Zn1      0.21720    0.71720    0.78280   1.00
Zn1      0.28280    0.78280    0.78280   1.00
O2       0.27350    0.72650    0.66180   1.00
O2       0.27350    0.66180    0.72650   1.00
O2       0.33820    0.72650    0.72650   1.00
O2       0.22650    0.77350    0.66180   1.00
O2       0.16180    0.77350    0.72650   1.00
O2       0.22650    0.83820    0.72650   1.00
O2       0.22650    0.66180    0.77350   1.00
O2       0.16180    0.72650    0.77350   1.00
O2       0.22650    0.72650    0.83820   1.00
O2       0.33820    0.77350    0.77350   1.00
O2       0.27350    0.83820    0.77350   1.00
O2       0.27350    0.77350    0.83820   1.00
C1       0.25000    0.75000    0.64480   1.00
C1       0.25000    0.64480    0.75000   1.00
C1       0.35520    0.75000    0.75000   1.00
C1       0.14480    0.75000    0.75000   1.00
C1       0.25000    0.85520    0.75000   1.00
C1       0.25000    0.75000    0.85520   1.00
O1       0.91500    0.91500    0.91500   1.00
Zn1      0.88220    0.94780    0.94780   1.00
Zn1      0.94780    0.88220    0.94780   1.00
Zn1      0.94780    0.94780    0.88220   1.00
Zn1      0.88220    0.88220    0.88220   1.00
O2       0.89150    0.93850    1.00320   1.00
O2       0.89150    1.00320    0.93850   1.00
O2       0.82680    0.93850    0.93850   1.00
O2       0.93850    0.89150    1.00320   1.00
O2       1.00320    0.89150    0.93850   1.00
O2       0.93850    0.82680    0.93850   1.00
O2       0.93850    1.00320    0.89150   1.00
O2       1.00320    0.93850    0.89150   1.00
O2       0.93850    0.93850    0.82680   1.00
O2       0.82680    0.89150    0.89150   1.00
O2       0.89150    0.82680    0.89150   1.00
O2       0.89150    0.89150    0.82680   1.00
C1       0.91500    0.91500    1.02020   1.00
C1       0.91500    1.02020    0.91500   1.00
C1       0.80980    0.91500    0.91500   1.00
C1       1.02020    0.91500    0.91500   1.00
C1       0.91500    0.80980    0.91500   1.00
C1       0.91500    0.91500    0.80980   1.00
O1       0.41500    0.41500    0.91500   1.00
Zn1      0.38220    0.44780    0.94780   1.00
Zn1      0.44780    0.38220    0.94780   1.00
Zn1      0.44780    0.44780    0.88220   1.00
Zn1      0.38220    0.38220    0.88220   1.00
O2       0.39150    0.43850    1.00320   1.00
O2       0.39150    0.50320    0.93850   1.00
O2       0.32680    0.43850    0.93850   1.00
O2       0.43850    0.39150    1.00320   1.00
O2       0.50320    0.39150    0.93850   1.00
O2       0.43850    0.32680    0.93850   1.00
O2       0.43850    0.50320    0.89150   1.00
O2       0.50320    0.43850    0.89150   1.00
O2       0.43850    0.43850    0.82680   1.00
O2       0.32680    0.39150    0.89150   1.00
O2       0.39150    0.32680    0.89150   1.00
O2       0.39150    0.39150    0.82680   1.00
C1       0.41500    0.41500    1.02020   1.00
C1       0.41500    0.52020    0.91500   1.00
C1       0.30980    0.41500    0.91500   1.00
C1       0.52020    0.41500    0.91500   1.00
C1       0.41500    0.30980    0.91500   1.00
C1       0.41500    0.41500    0.80980   1.00
O1       0.41500    0.91500    0.41500   1.00
Zn1      0.38220    0.94780    0.44780   1.00
Zn1      0.44780    0.88220    0.44780   1.00
Zn1      0.44780    0.94780    0.38220   1.00
Zn1      0.38220    0.88220    0.38220   1.00
O2       0.39150    0.93850    0.50320   1.00
O2       0.39150    1.00320    0.43850   1.00
O2       0.32680    0.93850    0.43850   1.00
O2       0.43850    0.89150    0.50320   1.00
O2       0.50320    0.89150    0.43850   1.00
O2       0.43850    0.82680    0.43850   1.00
O2       0.43850    1.00320    0.39150   1.00
O2       0.50320    0.93850    0.39150   1.00
O2       0.43850    0.93850    0.32680   1.00
O2       0.32680    0.89150    0.39150   1.00
O2       0.39150    0.82680    0.39150   1.00
O2       0.39150    0.89150    0.32680   1.00
C1       0.41500    0.91500    0.52020   1.00
C1       0.41500    1.02020    0.41500   1.00
C1       0.30980    0.91500    0.41500   1.00
C1       0.52020    0.91500    0.41500   1.00
C1       0.41500    0.80980    0.41500   1.00
C1       0.41500    0.91500    0.30980   1.00
O1       0.91500    0.41500    0.41500   1.00
Zn1      0.88220    0.44780    0.44780   1.00
Zn1      0.94780    0.38220    0.44780   1.00
Zn1      0.94780    0.44780    0.38220   1.00
Zn1      0.88220    0.38220    0.38220   1.00
O2       0.89150    0.43850    0.50320   1.00
O2       0.89150    0.50320    0.43850   1.00
O2       0.82680    0.43850    0.43850   1.00
O2       0.93850    0.39150    0.50320   1.00
O2       1.00320    0.39150    0.43850   1.00
O2       0.93850    0.32680    0.43850   1.00
O2       0.93850    0.50320    0.39150   1.00
O2       1.00320    0.43850    0.39150   1.00
O2       0.93850    0.43850    0.32680   1.00
O2       0.82680    0.39150    0.39150   1.00
O2       0.89150    0.32680    0.39150   1.00
O2       0.89150    0.39150    0.32680   1.00
C1       0.91500    0.41500    0.52020   1.00
C1       0.91500    0.52020    0.41500   1.00
C1       0.80980    0.41500    0.41500   1.00
C1       1.02020    0.41500    0.41500   1.00
C1       0.91500    0.30980    0.41500   1.00
C1       0.91500    0.41500    0.30980   1.00
O1       0.41500    0.41500    0.41500   1.00
Zn1      0.44780    0.38220    0.38220   1.00
Zn1      0.38220    0.44780    0.38220   1.00
Zn1      0.38220    0.38220    0.44780   1.00
Zn1      0.44780    0.44780    0.44780   1.00
O2       0.43850    0.39150    0.32680   1.00
O2       0.43850    0.32680    0.39150   1.00
O2       0.50320    0.39150    0.39150   1.00
O2       0.39150    0.43850    0.32680   1.00
O2       0.32680    0.43850    0.39150   1.00
O2       0.39150    0.50320    0.39150   1.00
O2       0.39150    0.32680    0.43850   1.00
O2       0.32680    0.39150    0.43850   1.00
O2       0.39150    0.39150    0.50320   1.00
O2       0.50320    0.43850    0.43850   1.00
O2       0.43850    0.50320    0.43850   1.00
O2       0.43850    0.43850    0.50320   1.00
C1       0.41500    0.41500    0.30980   1.00
C1       0.41500    0.30980    0.41500   1.00
C1       0.52020    0.41500    0.41500   1.00
C1       0.30980    0.41500    0.41500   1.00
C1       0.41500    0.52020    0.41500   1.00
C1       0.41500    0.41500    0.52020   1.00
O1       0.91500    0.91500    0.41500   1.00
Zn1      0.94780    0.88220    0.38220   1.00
Zn1      0.88220    0.94780    0.38220   1.00
Zn1      0.88220    0.88220    0.44780   1.00
Zn1      0.94780    0.94780    0.44780   1.00
O2       0.93850    0.89150    0.32680   1.00
O2       0.93850    0.82680    0.39150   1.00
O2       1.00320    0.89150    0.39150   1.00
O2       0.89150    0.93850    0.32680   1.00
O2       0.82680    0.93850    0.39150   1.00
O2       0.89150    1.00320    0.39150   1.00
O2       0.89150    0.82680    0.43850   1.00
O2       0.82680    0.89150    0.43850   1.00
O2       0.89150    0.89150    0.50320   1.00
O2       1.00320    0.93850    0.43850   1.00
O2       0.93850    1.00320    0.43850   1.00
O2       0.93850    0.93850    0.50320   1.00
C1       0.91500    0.91500    0.30980   1.00
C1       0.91500    0.80980    0.41500   1.00
C1       1.02020    0.91500    0.41500   1.00
C1       0.80980    0.91500    0.41500   1.00
C1       0.91500    1.02020    0.41500   1.00
C1       0.91500    0.91500    0.52020   1.00
O1       0.91500    0.41500    0.91500   1.00
Zn1      0.94780    0.38220    0.88220   1.00
Zn1      0.88220    0.44780    0.88220   1.00
Zn1      0.88220    0.38220    0.94780   1.00
Zn1      0.94780    0.44780    0.94780   1.00
O2       0.93850    0.39150    0.82680   1.00
O2       0.93850    0.32680    0.89150   1.00
O2       1.00320    0.39150    0.89150   1.00
O2       0.89150    0.43850    0.82680   1.00
O2       0.82680    0.43850    0.89150   1.00
O2       0.89150    0.50320    0.89150   1.00
O2       0.89150    0.32680    0.93850   1.00
O2       0.82680    0.39150    0.93850   1.00
O2       0.89150    0.39150    1.00320   1.00
O2       1.00320    0.43850    0.93850   1.00
O2       0.93850    0.50320    0.93850   1.00
O2       0.93850    0.43850    1.00320   1.00
C1       0.91500    0.41500    0.80980   1.00
C1       0.91500    0.30980    0.91500   1.00
C1       1.02020    0.41500    0.91500   1.00
C1       0.80980    0.41500    0.91500   1.00
C1       0.91500    0.52020    0.91500   1.00
C1       0.91500    0.41500    1.02020   1.00
O1       0.41500    0.91500    0.91500   1.00
Zn1      0.44780    0.88220    0.88220   1.00
Zn1      0.38220    0.94780    0.88220   1.00
Zn1      0.38220    0.88220    0.94780   1.00
Zn1      0.44780    0.94780    0.94780   1.00
O2       0.43850    0.89150    0.82680   1.00
O2       0.43850    0.82680    0.89150   1.00
O2       0.50320    0.89150    0.89150   1.00
O2       0.39150    0.93850    0.82680   1.00
O2       0.32680    0.93850    0.89150   1.00
O2       0.39150    1.00320    0.89150   1.00
O2       0.39150    0.82680    0.93850   1.00
O2       0.32680    0.89150    0.93850   1.00
O2       0.39150    0.89150    1.00320   1.00
O2       0.50320    0.93850    0.93850   1.00
O2       0.43850    1.00320    0.93850   1.00
O2       0.43850    0.93850    1.00320   1.00
C1       0.41500    0.91500    0.80980   1.00
C1       0.41500    0.80980    0.91500   1.00
C1       0.52020    0.91500    0.91500   1.00
C1       0.30980    0.91500    0.91500   1.00
C1       0.41500    1.02020    0.91500   1.00
C1       0.41500    0.91500    1.02020   1.00
C4       0.75035    0.74984    0.97915   1.00
C4       0.74965    0.75016    1.02085   1.00
C3       0.74850    0.71470    0.95751   1.00
C3       0.72535    0.72479    1.04252   1.00
C3       0.75207    0.78491    0.95738   1.00
C3       0.77404    0.77542    1.04259   1.00
C2       0.74993    0.74985    0.89482   1.00
C2       0.74993    0.74985    1.10518   1.00
C3a      0.74830    0.71455    0.91599   1.00
C3       0.72553    0.72471    1.08382   1.00
C3       0.75186    0.78484    0.91611   1.00
C3a      0.77431    0.77543    1.08403   1.00
H1       0.74752    0.68717    0.97294   1.00
H1       0.70575    0.70508    1.02750   1.00
C5       0.74650    0.67654    0.89410   1.00
H1       0.70645    0.70487    1.09933   1.00
H1       0.75291    0.81232    0.90056   1.00
C5       0.80095    0.80310    1.10535   1.00
H1       0.79402    0.79464    1.02747   1.00
H1       0.75280    0.81274    0.97230   1.00
H2       0.79203    0.83349    1.09837   1.00
H2       0.79825    0.79948    1.13747   1.00
N1       0.84156    0.79657    1.09395   1.00
C6       0.85679    0.80170    1.05810   1.00
C6       0.87064    0.78470    1.11757   1.00
C6       0.89604    0.79282    1.05873   1.00
C6       0.90484    0.78200    1.09656   1.00
H3       0.84048    0.81135    1.03281   1.00
H3       0.86724    0.77821    1.14831   1.00
H3       0.91603    0.79414    1.03436   1.00
H3       0.93304    0.77317    1.10758   1.00
H2       0.74604    0.68276    0.86228   1.00
H2       0.77268    0.65837    0.90001   1.00
N1       0.71168    0.65469    0.90523   1.00
C6       0.68031    0.64315    0.88078   1.00
C6       0.70210    0.64022    0.94285   1.00
C6       0.65332    0.62287    0.90277   1.00
C6       0.66670    0.62109    0.94091   1.00
H3       0.67811    0.64947    0.84992   1.00
H3       0.71975    0.64411    0.96876   1.00
H3       0.62633    0.61056    0.89205   1.00
H3       0.65191    0.60719    0.96505   1.00
C4       0.74984    0.97915    0.75035   1.00
C4       0.75016    1.02085    0.74965   1.00
C3       0.71470    0.95751    0.74850   1.00
C3       0.72479    1.04252    0.72535   1.00
C3       0.78491    0.95738    0.75207   1.00
C3       0.77542    1.04259    0.77404   1.00
C2       0.74985    0.89482    0.74993   1.00
C2       0.74985    1.10518    0.74993   1.00
C3a      0.71455    0.91599    0.74830   1.00
C3       0.72471    1.08382    0.72553   1.00
C3       0.78484    0.91611    0.75186   1.00
C3a      0.77543    1.08403    0.77431   1.00
H1       0.68717    0.97294    0.74752   1.00
H1       0.70508    1.02750    0.70575   1.00
C5       0.67654    0.89410    0.74650   1.00
H1       0.70487    1.09933    0.70645   1.00
H1       0.81232    0.90056    0.75291   1.00
C5       0.80310    1.10535    0.80095   1.00
H1       0.79464    1.02747    0.79402   1.00
H1       0.81274    0.97230    0.75280   1.00
H2       0.83349    1.09837    0.79203   1.00
H2       0.79948    1.13747    0.79825   1.00
N1       0.79657    1.09395    0.84156   1.00
C6       0.80170    1.05810    0.85679   1.00
C6       0.78470    1.11757    0.87064   1.00
C6       0.79282    1.05873    0.89604   1.00
C6       0.78200    1.09656    0.90484   1.00
H3       0.81135    1.03281    0.84048   1.00
H3       0.77821    1.14831    0.86724   1.00
H3       0.79414    1.03436    0.91603   1.00
H3       0.77317    1.10758    0.93304   1.00
H2       0.68276    0.86228    0.74604   1.00
H2       0.65837    0.90001    0.77268   1.00
N1       0.65469    0.90523    0.71168   1.00
C6       0.64315    0.88078    0.68031   1.00
C6       0.64022    0.94285    0.70210   1.00
C6       0.62287    0.90277    0.65332   1.00
C6       0.62109    0.94091    0.66670   1.00
H3       0.64947    0.84992    0.67811   1.00
H3       0.64411    0.96876    0.71975   1.00
H3       0.61056    0.89205    0.62633   1.00
H3       0.60719    0.96505    0.65191   1.00
C4       0.52085    0.75035    0.75016   1.00
C4       0.47915    0.74965    0.74984   1.00
C3       0.54249    0.74850    0.78530   1.00
C3       0.45748    0.72535    0.77521   1.00
C3       0.54262    0.75207    0.71509   1.00
C3       0.45741    0.77404    0.72458   1.00
C2       0.60518    0.74993    0.75015   1.00
C2       0.39482    0.74993    0.75015   1.00
C3a      0.58401    0.74830    0.78545   1.00
C3       0.41618    0.72553    0.77529   1.00
C3       0.58389    0.75186    0.71516   1.00
C3a      0.41597    0.77431    0.72457   1.00
H1       0.52706    0.74752    0.81283   1.00
H1       0.47250    0.70575    0.79492   1.00
C5       0.60590    0.74650    0.82346   1.00
H1       0.40067    0.70645    0.79513   1.00
H1       0.59944    0.75291    0.68768   1.00
C5       0.39465    0.80095    0.69690   1.00
H1       0.47253    0.79402    0.70536   1.00
H1       0.52770    0.75280    0.68726   1.00
H2       0.40163    0.79203    0.66651   1.00
H2       0.36253    0.79825    0.70052   1.00
N1       0.40605    0.84156    0.70343   1.00
C6       0.44190    0.85679    0.69830   1.00
C6       0.38243    0.87064    0.71530   1.00
C6       0.44127    0.89604    0.70718   1.00
C6       0.40344    0.90484    0.71800   1.00
H3       0.46719    0.84048    0.68865   1.00
H3       0.35169    0.86724    0.72179   1.00
H3       0.46564    0.91603    0.70586   1.00
H3       0.39242    0.93304    0.72683   1.00
H2       0.63772    0.74604    0.81724   1.00
H2       0.59999    0.77268    0.84163   1.00
N1       0.59477    0.71168    0.84531   1.00
C6       0.61922    0.68031    0.85685   1.00
C6       0.55715    0.70210    0.85978   1.00
C6       0.59723    0.65332    0.87713   1.00
C6       0.55909    0.66670    0.87891   1.00
H3       0.65008    0.67811    0.85053   1.00
H3       0.53124    0.71975    0.85589   1.00
H3       0.60795    0.62633    0.88944   1.00
H3       0.53495    0.65191    0.89281   1.00
C4       0.97915    0.75035    0.74984   1.00
C4       1.02085    0.74965    0.75016   1.00
C3       0.95751    0.74850    0.71470   1.00
C3       1.04252    0.72535    0.72479   1.00
C3       0.95738    0.75207    0.78491   1.00
C3       1.04259    0.77404    0.77542   1.00
C2       0.89482    0.74993    0.74985   1.00
C2       1.10518    0.74993    0.74985   1.00
C3a      0.91599    0.74830    0.71455   1.00
C3       1.08382    0.72553    0.72471   1.00
C3       0.91611    0.75186    0.78484   1.00
C3a      1.08403    0.77431    0.77543   1.00
H1       0.97294    0.74752    0.68717   1.00
H1       1.02750    0.70575    0.70508   1.00
C5       0.89410    0.74650    0.67654   1.00
H1       1.09933    0.70645    0.70487   1.00
H1       0.90056    0.75291    0.81232   1.00
C5       1.10535    0.80095    0.80310   1.00
H1       1.02747    0.79402    0.79464   1.00
H1       0.97230    0.75280    0.81274   1.00
H2       1.09837    0.79203    0.83349   1.00
H2       1.13747    0.79825    0.79948   1.00
N1       1.09395    0.84156    0.79657   1.00
C6       1.05810    0.85679    0.80170   1.00
C6       1.11757    0.87064    0.78470   1.00
C6       1.05873    0.89604    0.79282   1.00
C6       1.09656    0.90484    0.78200   1.00
H3       1.03281    0.84048    0.81135   1.00
H3       1.14831    0.86724    0.77821   1.00
H3       1.03436    0.91603    0.79414   1.00
H3       1.10758    0.93304    0.77317   1.00
H2       0.86228    0.74604    0.68276   1.00
H2       0.90001    0.77268    0.65837   1.00
N1       0.90523    0.71168    0.65469   1.00
C6       0.88078    0.68031    0.64315   1.00
C6       0.94285    0.70210    0.64022   1.00
C6       0.90277    0.65332    0.62287   1.00
C6       0.94091    0.66670    0.62109   1.00
H3       0.84992    0.67811    0.64947   1.00
H3       0.96876    0.71975    0.64411   1.00
H3       0.89205    0.62633    0.61056   1.00
H3       0.96505    0.65191    0.60719   1.00
C4       0.75016    0.52085    0.75035   1.00
C4       0.74984    0.47915    0.74965   1.00
C3       0.78530    0.54249    0.74850   1.00
C3       0.77521    0.45748    0.72535   1.00
C3       0.71509    0.54262    0.75207   1.00
C3       0.72458    0.45741    0.77404   1.00
C2       0.75015    0.60518    0.74993   1.00
C2       0.75015    0.39482    0.74993   1.00
C3a      0.78545    0.58401    0.74830   1.00
C3       0.77529    0.41618    0.72553   1.00
C3       0.71516    0.58389    0.75186   1.00
C3a      0.72457    0.41597    0.77431   1.00
H1       0.81283    0.52706    0.74752   1.00
H1       0.79492    0.47250    0.70575   1.00
C5       0.82346    0.60590    0.74650   1.00
H1       0.79513    0.40067    0.70645   1.00
H1       0.68768    0.59944    0.75291   1.00
C5       0.69690    0.39465    0.80095   1.00
H1       0.70536    0.47253    0.79402   1.00
H1       0.68726    0.52770    0.75280   1.00
H2       0.66651    0.40163    0.79203   1.00
H2       0.70052    0.36253    0.79825   1.00
N1       0.70343    0.40605    0.84156   1.00
C6       0.69830    0.44190    0.85679   1.00
C6       0.71530    0.38243    0.87064   1.00
C6       0.70718    0.44127    0.89604   1.00
C6       0.71800    0.40344    0.90484   1.00
H3       0.68865    0.46719    0.84048   1.00
H3       0.72179    0.35169    0.86724   1.00
H3       0.70586    0.46564    0.91603   1.00
H3       0.72683    0.39242    0.93304   1.00
H2       0.81724    0.63772    0.74604   1.00
H2       0.84163    0.59999    0.77268   1.00
N1       0.84531    0.59477    0.71168   1.00
C6       0.85685    0.61922    0.68031   1.00
C6       0.85978    0.55715    0.70210   1.00
C6       0.87713    0.59723    0.65332   1.00
C6       0.87891    0.55909    0.66670   1.00
H3       0.85053    0.65008    0.67811   1.00
H3       0.85589    0.53124    0.71975   1.00
H3       0.88944    0.60795    0.62633   1.00
H3       0.89281    0.53495    0.65191   1.00
C4       0.75035    0.75016    0.52085   1.00
C4       0.74965    0.74984    0.47915   1.00
C3       0.74850    0.78530    0.54249   1.00
C3       0.72535    0.77521    0.45748   1.00
C3       0.75207    0.71509    0.54262   1.00
C3       0.77404    0.72458    0.45741   1.00
C2       0.74993    0.75015    0.60518   1.00
C2       0.74993    0.75015    0.39482   1.00
C3a      0.74830    0.78545    0.58401   1.00
C3       0.72553    0.77529    0.41618   1.00
C3       0.75186    0.71516    0.58389   1.00
C3a      0.77431    0.72457    0.41597   1.00
H1       0.74752    0.81283    0.52706   1.00
H1       0.70575    0.79492    0.47250   1.00
C5       0.74650    0.82346    0.60590   1.00
H1       0.70645    0.79513    0.40067   1.00
H1       0.75291    0.68768    0.59944   1.00
C5       0.80095    0.69690    0.39465   1.00
H1       0.79402    0.70536    0.47253   1.00
H1       0.75280    0.68726    0.52770   1.00
H2       0.79203    0.66651    0.40163   1.00
H2       0.79825    0.70052    0.36253   1.00
N1       0.84156    0.70343    0.40605   1.00
C6       0.85679    0.69830    0.44190   1.00
C6       0.87064    0.71530    0.38243   1.00
C6       0.89604    0.70718    0.44127   1.00
C6       0.90484    0.71800    0.40344   1.00
H3       0.84048    0.68865    0.46719   1.00
H3       0.86724    0.72179    0.35169   1.00
H3       0.91603    0.70586    0.46564   1.00
H3       0.93304    0.72683    0.39242   1.00
H2       0.74604    0.81724    0.63772   1.00
H2       0.77268    0.84163    0.59999   1.00
N1       0.71168    0.84531    0.59477   1.00
C6       0.68031    0.85685    0.61922   1.00
C6       0.70210    0.85978    0.55715   1.00
C6       0.65332    0.87713    0.59723   1.00
C6       0.66670    0.87891    0.55909   1.00
H3       0.67811    0.85053    0.65008   1.00
H3       0.71975    0.85589    0.53124   1.00
H3       0.62633    0.88944    0.60795   1.00
H3       0.65191    0.89281    0.53495   1.00
C4       0.25035    0.24984    0.97915   1.00
C4       0.24965    0.25016    1.02085   1.00
C3       0.24850    0.21470    0.95751   1.00
C3       0.22535    0.22479    1.04252   1.00
C3       0.25207    0.28491    0.95738   1.00
C3       0.27404    0.27542    1.04259   1.00
C2       0.24993    0.24985    0.89482   1.00
C2       0.24993    0.24985    1.10518   1.00
C3a      0.24830    0.21455    0.91599   1.00
C3       0.22553    0.22471    1.08382   1.00
C3       0.25186    0.28484    0.91611   1.00
C3a      0.27431    0.27543    1.08403   1.00
H1       0.24752    0.18717    0.97294   1.00
H1       0.20575    0.20508    1.02750   1.00
C5       0.24650    0.17654    0.89410   1.00
H1       0.20645    0.20487    1.09933   1.00
H1       0.25291    0.31232    0.90056   1.00
C5       0.30095    0.30310    1.10535   1.00
H1       0.29402    0.29464    1.02747   1.00
H1       0.25280    0.31274    0.97230   1.00
H2       0.29203    0.33349    1.09837   1.00
H2       0.29825    0.29948    1.13747   1.00
N1       0.34156    0.29657    1.09395   1.00
C6       0.35679    0.30170    1.05810   1.00
C6       0.37064    0.28470    1.11757   1.00
C6       0.39604    0.29282    1.05873   1.00
C6       0.40484    0.28200    1.09656   1.00
H3       0.34048    0.31135    1.03281   1.00
H3       0.36724    0.27821    1.14831   1.00
H3       0.41603    0.29414    1.03436   1.00
H3       0.43304    0.27317    1.10758   1.00
H2       0.24604    0.18276    0.86228   1.00
H2       0.27268    0.15837    0.90001   1.00
N1       0.21168    0.15469    0.90523   1.00
C6       0.18031    0.14315    0.88078   1.00
C6       0.20210    0.14022    0.94285   1.00
C6       0.15332    0.12287    0.90277   1.00
C6       0.16670    0.12109    0.94091   1.00
H3       0.17811    0.14947    0.84992   1.00
H3       0.21975    0.14411    0.96876   1.00
H3       0.12633    0.11056    0.89205   1.00
H3       0.15191    0.10719    0.96505   1.00
C4       0.24984    0.47915    0.75035   1.00
C4       0.25016    0.52085    0.74965   1.00
C3       0.21470    0.45751    0.74850   1.00
C3       0.22479    0.54252    0.72535   1.00
C3       0.28491    0.45738    0.75207   1.00
C3       0.27542    0.54259    0.77404   1.00
C2       0.24985    0.39482    0.74993   1.00
C2       0.24985    0.60518    0.74993   1.00
C3a      0.21455    0.41599    0.74830   1.00
C3       0.22471    0.58382    0.72553   1.00
C3       0.28484    0.41611    0.75186   1.00
C3a      0.27543    0.58403    0.77431   1.00
H1       0.18717    0.47294    0.74752   1.00
H1       0.20508    0.52750    0.70575   1.00
C5       0.17654    0.39410    0.74650   1.00
H1       0.20487    0.59933    0.70645   1.00
H1       0.31232    0.40056    0.75291   1.00
C5       0.30310    0.60535    0.80095   1.00
H1       0.29464    0.52747    0.79402   1.00
H1       0.31274    0.47230    0.75280   1.00
H2       0.33349    0.59837    0.79203   1.00
H2       0.29948    0.63747    0.79825   1.00
N1       0.29657    0.59395    0.84156   1.00
C6       0.30170    0.55810    0.85679   1.00
C6       0.28470    0.61757    0.87064   1.00
C6       0.29282    0.55873    0.89604   1.00
C6       0.28200    0.59656    0.90484   1.00
H3       0.31135    0.53281    0.84048   1.00
H3       0.27821    0.64831    0.86724   1.00
H3       0.29414    0.53436    0.91603   1.00
H3       0.27317    0.60758    0.93304   1.00
H2       0.18276    0.36228    0.74604   1.00
H2       0.15837    0.40001    0.77268   1.00
N1       0.15469    0.40523    0.71168   1.00
C6       0.14315    0.38078    0.68031   1.00
C6       0.14022    0.44285    0.70210   1.00
C6       0.12287    0.40277    0.65332   1.00
C6       0.12109    0.44091    0.66670   1.00
H3       0.14947    0.34992    0.67811   1.00
H3       0.14411    0.46876    0.71975   1.00
H3       0.11056    0.39205    0.62633   1.00
H3       0.10719    0.46505    0.65191   1.00
C4       0.02085    0.25035    0.75016   1.00
C4       -0.02085   0.24965    0.74984   1.00
C3       0.04249    0.24850    0.78530   1.00
C3       -0.04252   0.22535    0.77521   1.00
C3       0.04262    0.25207    0.71509   1.00
C3       -0.04259   0.27404    0.72458   1.00
C2       0.10518    0.24993    0.75015   1.00
C2       -0.10518   0.24993    0.75015   1.00
C3a      0.08401    0.24830    0.78545   1.00
C3       -0.08382   0.22553    0.77529   1.00
C3       0.08389    0.25186    0.71516   1.00
C3a      -0.08403   0.27431    0.72457   1.00
H1       0.02706    0.24752    0.81283   1.00
H1       -0.02750   0.20575    0.79492   1.00
C5       0.10590    0.24650    0.82346   1.00
H1       -0.09933   0.20645    0.79513   1.00
H1       0.09944    0.25291    0.68768   1.00
C5       -0.10535   0.30095    0.69690   1.00
H1       -0.02747   0.29402    0.70536   1.00
H1       0.02770    0.25280    0.68726   1.00
H2       -0.09837   0.29203    0.66651   1.00
H2       -0.13747   0.29825    0.70052   1.00
N1       -0.09395   0.34156    0.70343   1.00
C6       -0.05810   0.35679    0.69830   1.00
C6       -0.11757   0.37064    0.71530   1.00
C6       -0.05873   0.39604    0.70718   1.00
C6       -0.09656   0.40484    0.71800   1.00
H3       -0.03281   0.34048    0.68865   1.00
H3       -0.14831   0.36724    0.72179   1.00
H3       -0.03436   0.41603    0.70586   1.00
H3       -0.10758   0.43304    0.72683   1.00
H2       0.13772    0.24604    0.81724   1.00
H2       0.09999    0.27268    0.84163   1.00
N1       0.09477    0.21168    0.84531   1.00
C6       0.11922    0.18031    0.85685   1.00
C6       0.05715    0.20210    0.85978   1.00
C6       0.09723    0.15332    0.87713   1.00
C6       0.05909    0.16670    0.87891   1.00
H3       0.15008    0.17811    0.85053   1.00
H3       0.03124    0.21975    0.85589   1.00
H3       0.10795    0.12633    0.88944   1.00
H3       0.03495    0.15191    0.89281   1.00
C4       0.47915    0.25035    0.74984   1.00
C4       0.52085    0.24965    0.75016   1.00
C3       0.45751    0.24850    0.71470   1.00
C3       0.54252    0.22535    0.72479   1.00
C3       0.45738    0.25207    0.78491   1.00
C3       0.54259    0.27404    0.77542   1.00
C2       0.39482    0.24993    0.74985   1.00
C2       0.60518    0.24993    0.74985   1.00
C3a      0.41599    0.24830    0.71455   1.00
C3       0.58382    0.22553    0.72471   1.00
C3       0.41611    0.25186    0.78484   1.00
C3a      0.58403    0.27431    0.77543   1.00
H1       0.47294    0.24752    0.68717   1.00
H1       0.52750    0.20575    0.70508   1.00
C5       0.39410    0.24650    0.67654   1.00
H1       0.59933    0.20645    0.70487   1.00
H1       0.40056    0.25291    0.81232   1.00
C5       0.60535    0.30095    0.80310   1.00
H1       0.52747    0.29402    0.79464   1.00
H1       0.47230    0.25280    0.81274   1.00
H2       0.59837    0.29203    0.83349   1.00
H2       0.63747    0.29825    0.79948   1.00
N1       0.59395    0.34156    0.79657   1.00
C6       0.55810    0.35679    0.80170   1.00
C6       0.61757    0.37064    0.78470   1.00
C6       0.55873    0.39604    0.79282   1.00
C6       0.59656    0.40484    0.78200   1.00
H3       0.53281    0.34048    0.81135   1.00
H3       0.64831    0.36724    0.77821   1.00
H3       0.53436    0.41603    0.79414   1.00
H3       0.60758    0.43304    0.77317   1.00
H2       0.36228    0.24604    0.68276   1.00
H2       0.40001    0.27268    0.65837   1.00
N1       0.40523    0.21168    0.65469   1.00
C6       0.38078    0.18031    0.64315   1.00
C6       0.44285    0.20210    0.64022   1.00
C6       0.40277    0.15332    0.62287   1.00
C6       0.44091    0.16670    0.62109   1.00
H3       0.34992    0.17811    0.64947   1.00
H3       0.46876    0.21975    0.64411   1.00
H3       0.39205    0.12633    0.61056   1.00
H3       0.46505    0.15191    0.60719   1.00
C4       0.25016    0.02085    0.75035   1.00
C4       0.24984    -0.02085   0.74965   1.00
C3       0.28530    0.04249    0.74850   1.00
C3       0.27521    -0.04252   0.72535   1.00
C3       0.21509    0.04262    0.75207   1.00
C3       0.22458    -0.04259   0.77404   1.00
C2       0.25015    0.10518    0.74993   1.00
C2       0.25015    -0.10518   0.74993   1.00
C3a      0.28545    0.08401    0.74830   1.00
C3       0.27529    -0.08382   0.72553   1.00
C3       0.21516    0.08389    0.75186   1.00
C3a      0.22457    -0.08403   0.77431   1.00
H1       0.31283    0.02706    0.74752   1.00
H1       0.29492    -0.02750   0.70575   1.00
C5       0.32346    0.10590    0.74650   1.00
H1       0.29513    -0.09933   0.70645   1.00
H1       0.18768    0.09944    0.75291   1.00
C5       0.19690    -0.10535   0.80095   1.00
H1       0.20536    -0.02747   0.79402   1.00
H1       0.18726    0.02770    0.75280   1.00
H2       0.16651    -0.09837   0.79203   1.00
H2       0.20052    -0.13747   0.79825   1.00
N1       0.20343    -0.09395   0.84156   1.00
C6       0.19830    -0.05810   0.85679   1.00
C6       0.21530    -0.11757   0.87064   1.00
C6       0.20718    -0.05873   0.89604   1.00
C6       0.21800    -0.09656   0.90484   1.00
H3       0.18865    -0.03281   0.84048   1.00
H3       0.22179    -0.14831   0.86724   1.00
H3       0.20586    -0.03436   0.91603   1.00
H3       0.22683    -0.10758   0.93304   1.00
H2       0.31724    0.13772    0.74604   1.00
H2       0.34163    0.09999    0.77268   1.00
N1       0.34531    0.09477    0.71168   1.00
C6       0.35685    0.11922    0.68031   1.00
C6       0.35978    0.05715    0.70210   1.00
C6       0.37713    0.09723    0.65332   1.00
C6       0.37891    0.05909    0.66670   1.00
H3       0.35053    0.15008    0.67811   1.00
H3       0.35589    0.03124    0.71975   1.00
H3       0.38944    0.10795    0.62633   1.00
H3       0.39281    0.03495    0.65191   1.00
C4       0.25035    0.25016    0.52085   1.00
C4       0.24965    0.24984    0.47915   1.00
C3       0.24850    0.28530    0.54249   1.00
C3       0.22535    0.27521    0.45748   1.00
C3       0.25207    0.21509    0.54262   1.00
C3       0.27404    0.22458    0.45741   1.00
C2       0.24993    0.25015    0.60518   1.00
C2       0.24993    0.25015    0.39482   1.00
C3a      0.24830    0.28545    0.58401   1.00
C3       0.22553    0.27529    0.41618   1.00
C3       0.25186    0.21516    0.58389   1.00
C3a      0.27431    0.22457    0.41597   1.00
H1       0.24752    0.31283    0.52706   1.00
H1       0.20575    0.29492    0.47250   1.00
C5       0.24650    0.32346    0.60590   1.00
H1       0.20645    0.29513    0.40067   1.00
H1       0.25291    0.18768    0.59944   1.00
C5       0.30095    0.19690    0.39465   1.00
H1       0.29402    0.20536    0.47253   1.00
H1       0.25280    0.18726    0.52770   1.00
H2       0.29203    0.16651    0.40163   1.00
H2       0.29825    0.20052    0.36253   1.00
N1       0.34156    0.20343    0.40605   1.00
C6       0.35679    0.19830    0.44190   1.00
C6       0.37064    0.21530    0.38243   1.00
C6       0.39604    0.20718    0.44127   1.00
C6       0.40484    0.21800    0.40344   1.00
H3       0.34048    0.18865    0.46719   1.00
H3       0.36724    0.22179    0.35169   1.00
H3       0.41603    0.20586    0.46564   1.00
H3       0.43304    0.22683    0.39242   1.00
H2       0.24604    0.31724    0.63772   1.00
H2       0.27268    0.34163    0.59999   1.00
N1       0.21168    0.34531    0.59477   1.00
C6       0.18031    0.35685    0.61922   1.00
C6       0.20210    0.35978    0.55715   1.00
C6       0.15332    0.37713    0.59723   1.00
C6       0.16670    0.37891    0.55909   1.00
H3       0.17811    0.35053    0.65008   1.00
H3       0.21975    0.35589    0.53124   1.00
H3       0.12633    0.38944    0.60795   1.00
H3       0.15191    0.39281    0.53495   1.00
C4       0.25035    0.74984    0.47915   1.00
C4       0.24965    0.75016    0.52085   1.00
C3       0.24850    0.71470    0.45751   1.00
C3       0.22535    0.72479    0.54252   1.00
C3       0.25207    0.78491    0.45738   1.00
C3       0.27404    0.77542    0.54259   1.00
C2       0.24993    0.74985    0.39482   1.00
C2       0.24993    0.74985    0.60518   1.00
C3a      0.24830    0.71455    0.41599   1.00
C3       0.22553    0.72471    0.58382   1.00
C3       0.25186    0.78484    0.41611   1.00
C3a      0.27431    0.77543    0.58403   1.00
H1       0.24752    0.68717    0.47294   1.00
H1       0.20575    0.70508    0.52750   1.00
C5       0.24650    0.67654    0.39410   1.00
H1       0.20645    0.70487    0.59933   1.00
H1       0.25291    0.81232    0.40056   1.00
C5       0.30095    0.80310    0.60535   1.00
H1       0.29402    0.79464    0.52747   1.00
H1       0.25280    0.81274    0.47230   1.00
H2       0.29203    0.83349    0.59837   1.00
H2       0.29825    0.79948    0.63747   1.00
N1       0.34156    0.79657    0.59395   1.00
C6       0.35679    0.80170    0.55810   1.00
C6       0.37064    0.78470    0.61757   1.00
C6       0.39604    0.79282    0.55873   1.00
C6       0.40484    0.78200    0.59656   1.00
H3       0.34048    0.81135    0.53281   1.00
H3       0.36724    0.77821    0.64831   1.00
H3       0.41603    0.79414    0.53436   1.00
H3       0.43304    0.77317    0.60758   1.00
H2       0.24604    0.68276    0.36228   1.00
H2       0.27268    0.65837    0.40001   1.00
N1       0.21168    0.65469    0.40523   1.00
C6       0.18031    0.64315    0.38078   1.00
C6       0.20210    0.64022    0.44285   1.00
C6       0.15332    0.62287    0.40277   1.00
C6       0.16670    0.62109    0.44091   1.00
H3       0.17811    0.64947    0.34992   1.00
H3       0.21975    0.64411    0.46876   1.00
H3       0.12633    0.61056    0.39205   1.00
H3       0.15191    0.60719    0.46505   1.00
C4       0.24984    0.97915    0.25035   1.00
C4       0.25016    1.02085    0.24965   1.00
C3       0.21470    0.95751    0.24850   1.00
C3       0.22479    1.04252    0.22535   1.00
C3       0.28491    0.95738    0.25207   1.00
C3       0.27542    1.04259    0.27404   1.00
C2       0.24985    0.89482    0.24993   1.00
C2       0.24985    1.10518    0.24993   1.00
C3a      0.21455    0.91599    0.24830   1.00
C3       0.22471    1.08382    0.22553   1.00
C3       0.28484    0.91611    0.25186   1.00
C3a      0.27543    1.08403    0.27431   1.00
H1       0.18717    0.97294    0.24752   1.00
H1       0.20508    1.02750    0.20575   1.00
C5       0.17654    0.89410    0.24650   1.00
H1       0.20487    1.09933    0.20645   1.00
H1       0.31232    0.90056    0.25291   1.00
C5       0.30310    1.10535    0.30095   1.00
H1       0.29464    1.02747    0.29402   1.00
H1       0.31274    0.97230    0.25280   1.00
H2       0.33349    1.09837    0.29203   1.00
H2       0.29948    1.13747    0.29825   1.00
N1       0.29657    1.09395    0.34156   1.00
C6       0.30170    1.05810    0.35679   1.00
C6       0.28470    1.11757    0.37064   1.00
C6       0.29282    1.05873    0.39604   1.00
C6       0.28200    1.09656    0.40484   1.00
H3       0.31135    1.03281    0.34048   1.00
H3       0.27821    1.14831    0.36724   1.00
H3       0.29414    1.03436    0.41603   1.00
H3       0.27317    1.10758    0.43304   1.00
H2       0.18276    0.86228    0.24604   1.00
H2       0.15837    0.90001    0.27268   1.00
N1       0.15469    0.90523    0.21168   1.00
C6       0.14315    0.88078    0.18031   1.00
C6       0.14022    0.94285    0.20210   1.00
C6       0.12287    0.90277    0.15332   1.00
C6       0.12109    0.94091    0.16670   1.00
H3       0.14947    0.84992    0.17811   1.00
H3       0.14411    0.96876    0.21975   1.00
H3       0.11056    0.89205    0.12633   1.00
H3       0.10719    0.96505    0.15191   1.00
C4       0.02085    0.75035    0.25016   1.00
C4       -0.02085   0.74965    0.24984   1.00
C3       0.04249    0.74850    0.28530   1.00
C3       -0.04252   0.72535    0.27521   1.00
C3       0.04262    0.75207    0.21509   1.00
C3       -0.04259   0.77404    0.22458   1.00
C2       0.10518    0.74993    0.25015   1.00
C2       -0.10518   0.74993    0.25015   1.00
C3a      0.08401    0.74830    0.28545   1.00
C3       -0.08382   0.72553    0.27529   1.00
C3       0.08389    0.75186    0.21516   1.00
C3a      -0.08403   0.77431    0.22457   1.00
H1       0.02706    0.74752    0.31283   1.00
H1       -0.02750   0.70575    0.29492   1.00
C5       0.10590    0.74650    0.32346   1.00
H1       -0.09933   0.70645    0.29513   1.00
H1       0.09944    0.75291    0.18768   1.00
C5       -0.10535   0.80095    0.19690   1.00
H1       -0.02747   0.79402    0.20536   1.00
H1       0.02770    0.75280    0.18726   1.00
H2       -0.09837   0.79203    0.16651   1.00
H2       -0.13747   0.79825    0.20052   1.00
N1       -0.09395   0.84156    0.20343   1.00
C6       -0.05810   0.85679    0.19830   1.00
C6       -0.11757   0.87064    0.21530   1.00
C6       -0.05873   0.89604    0.20718   1.00
C6       -0.09656   0.90484    0.21800   1.00
H3       -0.03281   0.84048    0.18865   1.00
H3       -0.14831   0.86724    0.22179   1.00
H3       -0.03436   0.91603    0.20586   1.00
H3       -0.10758   0.93304    0.22683   1.00
H2       0.13772    0.74604    0.31724   1.00
H2       0.09999    0.77268    0.34163   1.00
N1       0.09477    0.71168    0.34531   1.00
C6       0.11922    0.68031    0.35685   1.00
C6       0.05715    0.70210    0.35978   1.00
C6       0.09723    0.65332    0.37713   1.00
C6       0.05909    0.66670    0.37891   1.00
H3       0.15008    0.67811    0.35053   1.00
H3       0.03124    0.71975    0.35589   1.00
H3       0.10795    0.62633    0.38944   1.00
H3       0.03495    0.65191    0.39281   1.00
C4       0.47915    0.75035    0.24984   1.00
C4       0.52085    0.74965    0.25016   1.00
C3       0.45751    0.74850    0.21470   1.00
C3       0.54252    0.72535    0.22479   1.00
C3       0.45738    0.75207    0.28491   1.00
C3       0.54259    0.77404    0.27542   1.00
C2       0.39482    0.74993    0.24985   1.00
C2       0.60518    0.74993    0.24985   1.00
C3a      0.41599    0.74830    0.21455   1.00
C3       0.58382    0.72553    0.22471   1.00
C3       0.41611    0.75186    0.28484   1.00
C3a      0.58403    0.77431    0.27543   1.00
H1       0.47294    0.74752    0.18717   1.00
H1       0.52750    0.70575    0.20508   1.00
C5       0.39410    0.74650    0.17654   1.00
H1       0.59933    0.70645    0.20487   1.00
H1       0.40056    0.75291    0.31232   1.00
C5       0.60535    0.80095    0.30310   1.00
H1       0.52747    0.79402    0.29464   1.00
H1       0.47230    0.75280    0.31274   1.00
H2       0.59837    0.79203    0.33349   1.00
H2       0.63747    0.79825    0.29948   1.00
N1       0.59395    0.84156    0.29657   1.00
C6       0.55810    0.85679    0.30170   1.00
C6       0.61757    0.87064    0.28470   1.00
C6       0.55873    0.89604    0.29282   1.00
C6       0.59656    0.90484    0.28200   1.00
H3       0.53281    0.84048    0.31135   1.00
H3       0.64831    0.86724    0.27821   1.00
H3       0.53436    0.91603    0.29414   1.00
H3       0.60758    0.93304    0.27317   1.00
H2       0.36228    0.74604    0.18276   1.00
H2       0.40001    0.77268    0.15837   1.00
N1       0.40523    0.71168    0.15469   1.00
C6       0.38078    0.68031    0.14315   1.00
C6       0.44285    0.70210    0.14022   1.00
C6       0.40277    0.65332    0.12287   1.00
C6       0.44091    0.66670    0.12109   1.00
H3       0.34992    0.67811    0.14947   1.00
H3       0.46876    0.71975    0.14411   1.00
H3       0.39205    0.62633    0.11056   1.00
H3       0.46505    0.65191    0.10719   1.00
C4       0.25016    0.52085    0.25035   1.00
C4       0.24984    0.47915    0.24965   1.00
C3       0.28530    0.54249    0.24850   1.00
C3       0.27521    0.45748    0.22535   1.00
C3       0.21509    0.54262    0.25207   1.00
C3       0.22458    0.45741    0.27404   1.00
C2       0.25015    0.60518    0.24993   1.00
C2       0.25015    0.39482    0.24993   1.00
C3a      0.28545    0.58401    0.24830   1.00
C3       0.27529    0.41618    0.22553   1.00
C3       0.21516    0.58389    0.25186   1.00
C3a      0.22457    0.41597    0.27431   1.00
H1       0.31283    0.52706    0.24752   1.00
H1       0.29492    0.47250    0.20575   1.00
C5       0.32346    0.60590    0.24650   1.00
H1       0.29513    0.40067    0.20645   1.00
H1       0.18768    0.59944    0.25291   1.00
C5       0.19690    0.39465    0.30095   1.00
H1       0.20536    0.47253    0.29402   1.00
H1       0.18726    0.52770    0.25280   1.00
H2       0.16651    0.40163    0.29203   1.00
H2       0.20052    0.36253    0.29825   1.00
N1       0.20343    0.40605    0.34156   1.00
C6       0.19830    0.44190    0.35679   1.00
C6       0.21530    0.38243    0.37064   1.00
C6       0.20718    0.44127    0.39604   1.00
C6       0.21800    0.40344    0.40484   1.00
H3       0.18865    0.46719    0.34048   1.00
H3       0.22179    0.35169    0.36724   1.00
H3       0.20586    0.46564    0.41603   1.00
H3       0.22683    0.39242    0.43304   1.00
H2       0.31724    0.63772    0.24604   1.00
H2       0.34163    0.59999    0.27268   1.00
N1       0.34531    0.59477    0.21168   1.00
C6       0.35685    0.61922    0.18031   1.00
C6       0.35978    0.55715    0.20210   1.00
C6       0.37713    0.59723    0.15332   1.00
C6       0.37891    0.55909    0.16670   1.00
H3       0.35053    0.65008    0.17811   1.00
H3       0.35589    0.53124    0.21975   1.00
H3       0.38944    0.60795    0.12633   1.00
H3       0.39281    0.53495    0.15191   1.00
C4       0.25035    0.75016    0.02085   1.00
C4       0.24965    0.74984    -0.02085   1.00
C3       0.24850    0.78530    0.04249   1.00
C3       0.22535    0.77521    -0.04252   1.00
C3       0.25207    0.71509    0.04262   1.00
C3       0.27404    0.72458    -0.04259   1.00
C2       0.24993    0.75015    0.10518   1.00
C2       0.24993    0.75015    -0.10518   1.00
C3a      0.24830    0.78545    0.08401   1.00
C3       0.22553    0.77529    -0.08382   1.00
C3       0.25186    0.71516    0.08389   1.00
C3a      0.27431    0.72457    -0.08403   1.00
H1       0.24752    0.81283    0.02706   1.00
H1       0.20575    0.79492    -0.02750   1.00
C5       0.24650    0.82346    0.10590   1.00
H1       0.20645    0.79513    -0.09933   1.00
H1       0.25291    0.68768    0.09944   1.00
C5       0.30095    0.69690    -0.10535   1.00
H1       0.29402    0.70536    -0.02747   1.00
H1       0.25280    0.68726    0.02770   1.00
H2       0.29203    0.66651    -0.09837   1.00
H2       0.29825    0.70052    -0.13747   1.00
N1       0.34156    0.70343    -0.09395   1.00
C6       0.35679    0.69830    -0.05810   1.00
C6       0.37064    0.71530    -0.11757   1.00
C6       0.39604    0.70718    -0.05873   1.00
C6       0.40484    0.71800    -0.09656   1.00
H3       0.34048    0.68865    -0.03281   1.00
H3       0.36724    0.72179    -0.14831   1.00
H3       0.41603    0.70586    -0.03436   1.00
H3       0.43304    0.72683    -0.10758   1.00
H2       0.24604    0.81724    0.13772   1.00
H2       0.27268    0.84163    0.09999   1.00
N1       0.21168    0.84531    0.09477   1.00
C6       0.18031    0.85685    0.11922   1.00
C6       0.20210    0.85978    0.05715   1.00
C6       0.15332    0.87713    0.09723   1.00
C6       0.16670    0.87891    0.05909   1.00
H3       0.17811    0.85053    0.15008   1.00
H3       0.21975    0.85589    0.03124   1.00
H3       0.12633    0.88944    0.10795   1.00
H3       0.15191    0.89281    0.03495   1.00
C4       0.75035    0.24984    0.47915   1.00
C4       0.74965    0.25016    0.52085   1.00
C3       0.74850    0.21470    0.45751   1.00
C3       0.72535    0.22479    0.54252   1.00
C3       0.75207    0.28491    0.45738   1.00
C3       0.77404    0.27542    0.54259   1.00
C2       0.74993    0.24985    0.39482   1.00
C2       0.74993    0.24985    0.60518   1.00
C3a      0.74830    0.21455    0.41599   1.00
C3       0.72553    0.22471    0.58382   1.00
C3       0.75186    0.28484    0.41611   1.00
C3a      0.77431    0.27543    0.58403   1.00
H1       0.74752    0.18717    0.47294   1.00
H1       0.70575    0.20508    0.52750   1.00
C5       0.74650    0.17654    0.39410   1.00
H1       0.70645    0.20487    0.59933   1.00
H1       0.75291    0.31232    0.40056   1.00
C5       0.80095    0.30310    0.60535   1.00
H1       0.79402    0.29464    0.52747   1.00
H1       0.75280    0.31274    0.47230   1.00
H2       0.79203    0.33349    0.59837   1.00
H2       0.79825    0.29948    0.63747   1.00
N1       0.84156    0.29657    0.59395   1.00
C6       0.85679    0.30170    0.55810   1.00
C6       0.87064    0.28470    0.61757   1.00
C6       0.89604    0.29282    0.55873   1.00
C6       0.90484    0.28200    0.59656   1.00
H3       0.84048    0.31135    0.53281   1.00
H3       0.86724    0.27821    0.64831   1.00
H3       0.91603    0.29414    0.53436   1.00
H3       0.93304    0.27317    0.60758   1.00
H2       0.74604    0.18276    0.36228   1.00
H2       0.77268    0.15837    0.40001   1.00
N1       0.71168    0.15469    0.40523   1.00
C6       0.68031    0.14315    0.38078   1.00
C6       0.70210    0.14022    0.44285   1.00
C6       0.65332    0.12287    0.40277   1.00
C6       0.66670    0.12109    0.44091   1.00
H3       0.67811    0.14947    0.34992   1.00
H3       0.71975    0.14411    0.46876   1.00
H3       0.62633    0.11056    0.39205   1.00
H3       0.65191    0.10719    0.46505   1.00
C4       0.74984    0.47915    0.25035   1.00
C4       0.75016    0.52085    0.24965   1.00
C3       0.71470    0.45751    0.24850   1.00
C3       0.72479    0.54252    0.22535   1.00
C3       0.78491    0.45738    0.25207   1.00
C3       0.77542    0.54259    0.27404   1.00
C2       0.74985    0.39482    0.24993   1.00
C2       0.74985    0.60518    0.24993   1.00
C3a      0.71455    0.41599    0.24830   1.00
C3       0.72471    0.58382    0.22553   1.00
C3       0.78484    0.41611    0.25186   1.00
C3a      0.77543    0.58403    0.27431   1.00
H1       0.68717    0.47294    0.24752   1.00
H1       0.70508    0.52750    0.20575   1.00
C5       0.67654    0.39410    0.24650   1.00
H1       0.70487    0.59933    0.20645   1.00
H1       0.81232    0.40056    0.25291   1.00
C5       0.80310    0.60535    0.30095   1.00
H1       0.79464    0.52747    0.29402   1.00
H1       0.81274    0.47230    0.25280   1.00
H2       0.83349    0.59837    0.29203   1.00
H2       0.79948    0.63747    0.29825   1.00
N1       0.79657    0.59395    0.34156   1.00
C6       0.80170    0.55810    0.35679   1.00
C6       0.78470    0.61757    0.37064   1.00
C6       0.79282    0.55873    0.39604   1.00
C6       0.78200    0.59656    0.40484   1.00
H3       0.81135    0.53281    0.34048   1.00
H3       0.77821    0.64831    0.36724   1.00
H3       0.79414    0.53436    0.41603   1.00
H3       0.77317    0.60758    0.43304   1.00
H2       0.68276    0.36228    0.24604   1.00
H2       0.65837    0.40001    0.27268   1.00
N1       0.65469    0.40523    0.21168   1.00
C6       0.64315    0.38078    0.18031   1.00
C6       0.64022    0.44285    0.20210   1.00
C6       0.62287    0.40277    0.15332   1.00
C6       0.62109    0.44091    0.16670   1.00
H3       0.64947    0.34992    0.17811   1.00
H3       0.64411    0.46876    0.21975   1.00
H3       0.61056    0.39205    0.12633   1.00
H3       0.60719    0.46505    0.15191   1.00
C4       0.52085    0.25035    0.25016   1.00
C4       0.47915    0.24965    0.24984   1.00
C3       0.54249    0.24850    0.28530   1.00
C3       0.45748    0.22535    0.27521   1.00
C3       0.54262    0.25207    0.21509   1.00
C3       0.45741    0.27404    0.22458   1.00
C2       0.60518    0.24993    0.25015   1.00
C2       0.39482    0.24993    0.25015   1.00
C3a      0.58401    0.24830    0.28545   1.00
C3       0.41618    0.22553    0.27529   1.00
C3       0.58389    0.25186    0.21516   1.00
C3a      0.41597    0.27431    0.22457   1.00
H1       0.52706    0.24752    0.31283   1.00
H1       0.47250    0.20575    0.29492   1.00
C5       0.60590    0.24650    0.32346   1.00
H1       0.40067    0.20645    0.29513   1.00
H1       0.59944    0.25291    0.18768   1.00
C5       0.39465    0.30095    0.19690   1.00
H1       0.47253    0.29402    0.20536   1.00
H1       0.52770    0.25280    0.18726   1.00
H2       0.40163    0.29203    0.16651   1.00
H2       0.36253    0.29825    0.20052   1.00
N1       0.40605    0.34156    0.20343   1.00
C6       0.44190    0.35679    0.19830   1.00
C6       0.38243    0.37064    0.21530   1.00
C6       0.44127    0.39604    0.20718   1.00
C6       0.40344    0.40484    0.21800   1.00
H3       0.46719    0.34048    0.18865   1.00
H3       0.35169    0.36724    0.22179   1.00
H3       0.46564    0.41603    0.20586   1.00
H3       0.39242    0.43304    0.22683   1.00
H2       0.63772    0.24604    0.31724   1.00
H2       0.59999    0.27268    0.34163   1.00
N1       0.59477    0.21168    0.34531   1.00
C6       0.61922    0.18031    0.35685   1.00
C6       0.55715    0.20210    0.35978   1.00
C6       0.59723    0.15332    0.37713   1.00
C6       0.55909    0.16670    0.37891   1.00
H3       0.65008    0.17811    0.35053   1.00
H3       0.53124    0.21975    0.35589   1.00
H3       0.60795    0.12633    0.38944   1.00
H3       0.53495    0.15191    0.39281   1.00
C4       0.97915    0.25035    0.24984   1.00
C4       1.02085    0.24965    0.25016   1.00
C3       0.95751    0.24850    0.21470   1.00
C3       1.04252    0.22535    0.22479   1.00
C3       0.95738    0.25207    0.28491   1.00
C3       1.04259    0.27404    0.27542   1.00
C2       0.89482    0.24993    0.24985   1.00
C2       1.10518    0.24993    0.24985   1.00
C3a      0.91599    0.24830    0.21455   1.00
C3       1.08382    0.22553    0.22471   1.00
C3       0.91611    0.25186    0.28484   1.00
C3a      1.08403    0.27431    0.27543   1.00
H1       0.97294    0.24752    0.18717   1.00
H1       1.02750    0.20575    0.20508   1.00
C5       0.89410    0.24650    0.17654   1.00
H1       1.09933    0.20645    0.20487   1.00
H1       0.90056    0.25291    0.31232   1.00
C5       1.10535    0.30095    0.30310   1.00
H1       1.02747    0.29402    0.29464   1.00
H1       0.97230    0.25280    0.31274   1.00
H2       1.09837    0.29203    0.33349   1.00
H2       1.13747    0.29825    0.29948   1.00
N1       1.09395    0.34156    0.29657   1.00
C6       1.05810    0.35679    0.30170   1.00
C6       1.11757    0.37064    0.28470   1.00
C6       1.05873    0.39604    0.29282   1.00
C6       1.09656    0.40484    0.28200   1.00
H3       1.03281    0.34048    0.31135   1.00
H3       1.14831    0.36724    0.27821   1.00
H3       1.03436    0.41603    0.29414   1.00
H3       1.10758    0.43304    0.27317   1.00
H2       0.86228    0.24604    0.18276   1.00
H2       0.90001    0.27268    0.15837   1.00
N1       0.90523    0.21168    0.15469   1.00
C6       0.88078    0.18031    0.14315   1.00
C6       0.94285    0.20210    0.14022   1.00
C6       0.90277    0.15332    0.12287   1.00
C6       0.94091    0.16670    0.12109   1.00
H3       0.84992    0.17811    0.14947   1.00
H3       0.96876    0.21975    0.14411   1.00
H3       0.89205    0.12633    0.11056   1.00
H3       0.96505    0.15191    0.10719   1.00
C4       0.75016    0.02085    0.25035   1.00
C4       0.74984    -0.02085   0.24965   1.00
C3       0.78530    0.04249    0.24850   1.00
C3       0.77521    -0.04252   0.22535   1.00
C3       0.71509    0.04262    0.25207   1.00
C3       0.72458    -0.04259   0.27404   1.00
C2       0.75015    0.10518    0.24993   1.00
C2       0.75015    -0.10518   0.24993   1.00
C3a      0.78545    0.08401    0.24830   1.00
C3       0.77529    -0.08382   0.22553   1.00
C3       0.71516    0.08389    0.25186   1.00
C3a      0.72457    -0.08403   0.27431   1.00
H1       0.81283    0.02706    0.24752   1.00
H1       0.79492    -0.02750   0.20575   1.00
C5       0.82346    0.10590    0.24650   1.00
H1       0.79513    -0.09933   0.20645   1.00
H1       0.68768    0.09944    0.25291   1.00
C5       0.69690    -0.10535   0.30095   1.00
H1       0.70536    -0.02747   0.29402   1.00
H1       0.68726    0.02770    0.25280   1.00
H2       0.66651    -0.09837   0.29203   1.00
H2       0.70052    -0.13747   0.29825   1.00
N1       0.70343    -0.09395   0.34156   1.00
C6       0.69830    -0.05810   0.35679   1.00
C6       0.71530    -0.11757   0.37064   1.00
C6       0.70718    -0.05873   0.39604   1.00
C6       0.71800    -0.09656   0.40484   1.00
H3       0.68865    -0.03281   0.34048   1.00
H3       0.72179    -0.14831   0.36724   1.00
H3       0.70586    -0.03436   0.41603   1.00
H3       0.72683    -0.10758   0.43304   1.00
H2       0.81724    0.13772    0.24604   1.00
H2       0.84163    0.09999    0.27268   1.00
N1       0.84531    0.09477    0.21168   1.00
C6       0.85685    0.11922    0.18031   1.00
C6       0.85978    0.05715    0.20210   1.00
C6       0.87713    0.09723    0.15332   1.00
C6       0.87891    0.05909    0.16670   1.00
H3       0.85053    0.15008    0.17811   1.00
H3       0.85589    0.03124    0.21975   1.00
H3       0.88944    0.10795    0.12633   1.00
H3       0.89281    0.03495    0.15191   1.00
C4       0.75035    0.25016    0.02085   1.00
C4       0.74965    0.24984    -0.02085   1.00
C3       0.74850    0.28530    0.04249   1.00
C3       0.72535    0.27521    -0.04252   1.00
C3       0.75207    0.21509    0.04262   1.00
C3       0.77404    0.22458    -0.04259   1.00
C2       0.74993    0.25015    0.10518   1.00
C2       0.74993    0.25015    -0.10518   1.00
C3a      0.74830    0.28545    0.08401   1.00
C3       0.72553    0.27529    -0.08382   1.00
C3       0.75186    0.21516    0.08389   1.00
C3a      0.77431    0.22457    -0.08403   1.00
H1       0.74752    0.31283    0.02706   1.00
H1       0.70575    0.29492    -0.02750   1.00
C5       0.74650    0.32346    0.10590   1.00
H1       0.70645    0.29513    -0.09933   1.00
H1       0.75291    0.18768    0.09944   1.00
C5       0.80095    0.19690    -0.10535   1.00
H1       0.79402    0.20536    -0.02747   1.00
H1       0.75280    0.18726    0.02770   1.00
H2       0.79203    0.16651    -0.09837   1.00
H2       0.79825    0.20052    -0.13747   1.00
N1       0.84156    0.20343    -0.09395   1.00
C6       0.85679    0.19830    -0.05810   1.00
C6       0.87064    0.21530    -0.11757   1.00
C6       0.89604    0.20718    -0.05873   1.00
C6       0.90484    0.21800    -0.09656   1.00
H3       0.84048    0.18865    -0.03281   1.00
H3       0.86724    0.22179    -0.14831   1.00
H3       0.91603    0.20586    -0.03436   1.00
H3       0.93304    0.22683    -0.10758   1.00
H2       0.74604    0.31724    0.13772   1.00
H2       0.77268    0.34163    0.09999   1.00
N1       0.71168    0.34531    0.09477   1.00
C6       0.68031    0.35685    0.11922   1.00
C6       0.70210    0.35978    0.05715   1.00
C6       0.65332    0.37713    0.09723   1.00
C6       0.66670    0.37891    0.05909   1.00
H3       0.67811    0.35053    0.15008   1.00
H3       0.71975    0.35589    0.03124   1.00
H3       0.62633    0.38944    0.10795   1.00
H3       0.65191    0.39281    0.03495   1.00
C4       0.91535    0.91484    1.14415   1.00
C4       0.91465    0.91516    1.18585   1.00
C3       0.91350    0.87970    1.12251   1.00
C3       0.89035    0.88979    1.20752   1.00
C3       0.91707    0.94991    1.12238   1.00
C3       0.93904    0.94042    1.20759   1.00
C2       0.91493    0.91485    1.05982   1.00
C2       0.91493    0.91485    1.27018   1.00
C3a      0.91330    0.87955    1.08099   1.00
C3       0.89053    0.88971    1.24882   1.00
C3       0.91686    0.94984    1.08111   1.00
C3a      0.93931    0.94043    1.24903   1.00
H1       0.91252    0.85217    1.13794   1.00
H1       0.87075    0.87008    1.19250   1.00
C5       0.91150    0.84154    1.05910   1.00
H1       0.87145    0.86987    1.26433   1.00
H1       0.91791    0.97732    1.06556   1.00
C5       0.96595    0.96810    1.27035   1.00
H1       0.95902    0.95964    1.19247   1.00
H1       0.91780    0.97774    1.13730   1.00
H2       0.95703    0.99849    1.26337   1.00
H2       0.96325    0.96448    1.30247   1.00
N1       1.00656    0.96157    1.25895   1.00
C6       1.02179    0.96670    1.22310   1.00
C6       1.03564    0.94970    1.28257   1.00
C6       1.06104    0.95782    1.22373   1.00
C6       1.06984    0.94700    1.26156   1.00
H3       1.00548    0.97635    1.19781   1.00
H3       1.03224    0.94321    1.31331   1.00
H3       1.08103    0.95914    1.19936   1.00
H3       1.09804    0.93817    1.27258   1.00
H2       0.91104    0.84776    1.02728   1.00
H2       0.93768    0.82337    1.06501   1.00
N1       0.87668    0.81969    1.07023   1.00
C6       0.84531    0.80815    1.04578   1.00
C6       0.86710    0.80522    1.10785   1.00
C6       0.81832    0.78787    1.06777   1.00
C6       0.83170    0.78609    1.10591   1.00
H3       0.84311    0.81447    1.01492   1.00
H3       0.88475    0.80911    1.13376   1.00
H3       0.79133    0.77556    1.05705   1.00
H3       0.81691    0.77219    1.13005   1.00
C4       0.91484    1.14415    0.91535   1.00
C4       0.91516    1.18585    0.91465   1.00
C3       0.87970    1.12251    0.91350   1.00
C3       0.88979    1.20752    0.89035   1.00
C3       0.94991    1.12238    0.91707   1.00
C3       0.94042    1.20759    0.93904   1.00
C2       0.91485    1.05982    0.91493   1.00
C2       0.91485    1.27018    0.91493   1.00
C3a      0.87955    1.08099    0.91330   1.00
C3       0.88971    1.24882    0.89053   1.00
C3       0.94984    1.08111    0.91686   1.00
C3a      0.94043    1.24903    0.93931   1.00
H1       0.85217    1.13794    0.91252   1.00
H1       0.87008    1.19250    0.87075   1.00
C5       0.84154    1.05910    0.91150   1.00
H1       0.86987    1.26433    0.87145   1.00
H1       0.97732    1.06556    0.91791   1.00
C5       0.96810    1.27035    0.96595   1.00
H1       0.95964    1.19247    0.95902   1.00
H1       0.97774    1.13730    0.91780   1.00
H2       0.99849    1.26337    0.95703   1.00
H2       0.96448    1.30247    0.96325   1.00
N1       0.96157    1.25895    1.00656   1.00
C6       0.96670    1.22310    1.02179   1.00
C6       0.94970    1.28257    1.03564   1.00
C6       0.95782    1.22373    1.06104   1.00
C6       0.94700    1.26156    1.06984   1.00
H3       0.97635    1.19781    1.00548   1.00
H3       0.94321    1.31331    1.03224   1.00
H3       0.95914    1.19936    1.08103   1.00
H3       0.93817    1.27258    1.09804   1.00
H2       0.84776    1.02728    0.91104   1.00
H2       0.82337    1.06501    0.93768   1.00
N1       0.81969    1.07023    0.87668   1.00
C6       0.80815    1.04578    0.84531   1.00
C6       0.80522    1.10785    0.86710   1.00
C6       0.78787    1.06777    0.81832   1.00
C6       0.78609    1.10591    0.83170   1.00
H3       0.81447    1.01492    0.84311   1.00
H3       0.80911    1.13376    0.88475   1.00
H3       0.77556    1.05705    0.79133   1.00
H3       0.77219    1.13005    0.81691   1.00
C4       0.68585    0.91535    0.91516   1.00
C4       0.64415    0.91465    0.91484   1.00
C3       0.70749    0.91350    0.95030   1.00
C3       0.62248    0.89035    0.94021   1.00
C3       0.70762    0.91707    0.88009   1.00
C3       0.62241    0.93904    0.88958   1.00
C2       0.77018    0.91493    0.91515   1.00
C2       0.55982    0.91493    0.91515   1.00
C3a      0.74901    0.91330    0.95045   1.00
C3       0.58118    0.89053    0.94029   1.00
C3       0.74889    0.91686    0.88016   1.00
C3a      0.58097    0.93931    0.88957   1.00
H1       0.69206    0.91252    0.97783   1.00
H1       0.63750    0.87075    0.95992   1.00
C5       0.77090    0.91150    0.98846   1.00
H1       0.56567    0.87145    0.96013   1.00
H1       0.76444    0.91791    0.85268   1.00
C5       0.55965    0.96595    0.86190   1.00
H1       0.63753    0.95902    0.87036   1.00
H1       0.69270    0.91780    0.85226   1.00
H2       0.56663    0.95703    0.83151   1.00
H2       0.52753    0.96325    0.86552   1.00
N1       0.57105    1.00656    0.86843   1.00
C6       0.60690    1.02179    0.86330   1.00
C6       0.54743    1.03564    0.88030   1.00
C6       0.60627    1.06104    0.87218   1.00
C6       0.56844    1.06984    0.88300   1.00
H3       0.63219    1.00548    0.85365   1.00
H3       0.51669    1.03224    0.88679   1.00
H3       0.63064    1.08103    0.87086   1.00
H3       0.55742    1.09804    0.89183   1.00
H2       0.80272    0.91104    0.98224   1.00
H2       0.76499    0.93768    1.00663   1.00
N1       0.75977    0.87668    1.01031   1.00
C6       0.78422    0.84531    1.02185   1.00
C6       0.72215    0.86710    1.02478   1.00
C6       0.76223    0.81832    1.04213   1.00
C6       0.72409    0.83170    1.04391   1.00
H3       0.81508    0.84311    1.01553   1.00
H3       0.69624    0.88475    1.02089   1.00
H3       0.77295    0.79133    1.05444   1.00
H3       0.69995    0.81691    1.05781   1.00
C4       1.14415    0.91535    0.91484   1.00
C4       1.18585    0.91465    0.91516   1.00
C3       1.12251    0.91350    0.87970   1.00
C3       1.20752    0.89035    0.88979   1.00
C3       1.12238    0.91707    0.94991   1.00
C3       1.20759    0.93904    0.94042   1.00
C2       1.05982    0.91493    0.91485   1.00
C2       1.27018    0.91493    0.91485   1.00
C3a      1.08099    0.91330    0.87955   1.00
C3       1.24882    0.89053    0.88971   1.00
C3       1.08111    0.91686    0.94984   1.00
C3a      1.24903    0.93931    0.94043   1.00
H1       1.13794    0.91252    0.85217   1.00
H1       1.19250    0.87075    0.87008   1.00
C5       1.05910    0.91150    0.84154   1.00
H1       1.26433    0.87145    0.86987   1.00
H1       1.06556    0.91791    0.97732   1.00
C5       1.27035    0.96595    0.96810   1.00
H1       1.19247    0.95902    0.95964   1.00
H1       1.13730    0.91780    0.97774   1.00
H2       1.26337    0.95703    0.99849   1.00
H2       1.30247    0.96325    0.96448   1.00
N1       1.25895    1.00656    0.96157   1.00
C6       1.22310    1.02179    0.96670   1.00
C6       1.28257    1.03564    0.94970   1.00
C6       1.22373    1.06104    0.95782   1.00
C6       1.26156    1.06984    0.94700   1.00
H3       1.19781    1.00548    0.97635   1.00
H3       1.31331    1.03224    0.94321   1.00
H3       1.19936    1.08103    0.95914   1.00
H3       1.27258    1.09804    0.93817   1.00
H2       1.02728    0.91104    0.84776   1.00
H2       1.06501    0.93768    0.82337   1.00
N1       1.07023    0.87668    0.81969   1.00
C6       1.04578    0.84531    0.80815   1.00
C6       1.10785    0.86710    0.80522   1.00
C6       1.06777    0.81832    0.78787   1.00
C6       1.10591    0.83170    0.78609   1.00
H3       1.01492    0.84311    0.81447   1.00
H3       1.13376    0.88475    0.80911   1.00
H3       1.05705    0.79133    0.77556   1.00
H3       1.13005    0.81691    0.77219   1.00
C4       0.91516    0.68585    0.91535   1.00
C4       0.91484    0.64415    0.91465   1.00
C3       0.95030    0.70749    0.91350   1.00
C3       0.94021    0.62248    0.89035   1.00
C3       0.88009    0.70762    0.91707   1.00
C3       0.88958    0.62241    0.93904   1.00
C2       0.91515    0.77018    0.91493   1.00
C2       0.91515    0.55982    0.91493   1.00
C3a      0.95045    0.74901    0.91330   1.00
C3       0.94029    0.58118    0.89053   1.00
C3       0.88016    0.74889    0.91686   1.00
C3a      0.88957    0.58097    0.93931   1.00
H1       0.97783    0.69206    0.91252   1.00
H1       0.95992    0.63750    0.87075   1.00
C5       0.98846    0.77090    0.91150   1.00
H1       0.96013    0.56567    0.87145   1.00
H1       0.85268    0.76444    0.91791   1.00
C5       0.86190    0.55965    0.96595   1.00
H1       0.87036    0.63753    0.95902   1.00
H1       0.85226    0.69270    0.91780   1.00
H2       0.83151    0.56663    0.95703   1.00
H2       0.86552    0.52753    0.96325   1.00
N1       0.86843    0.57105    1.00656   1.00
C6       0.86330    0.60690    1.02179   1.00
C6       0.88030    0.54743    1.03564   1.00
C6       0.87218    0.60627    1.06104   1.00
C6       0.88300    0.56844    1.06984   1.00
H3       0.85365    0.63219    1.00548   1.00
H3       0.88679    0.51669    1.03224   1.00
H3       0.87086    0.63064    1.08103   1.00
H3       0.89183    0.55742    1.09804   1.00
H2       0.98224    0.80272    0.91104   1.00
H2       1.00663    0.76499    0.93768   1.00
N1       1.01031    0.75977    0.87668   1.00
C6       1.02185    0.78422    0.84531   1.00
C6       1.02478    0.72215    0.86710   1.00
C6       1.04213    0.76223    0.81832   1.00
C6       1.04391    0.72409    0.83170   1.00
H3       1.01553    0.81508    0.84311   1.00
H3       1.02089    0.69624    0.88475   1.00
H3       1.05444    0.77295    0.79133   1.00
H3       1.05781    0.69995    0.81691   1.00
C4       0.91535    0.91516    0.68585   1.00
C4       0.91465    0.91484    0.64415   1.00
C3       0.91350    0.95030    0.70749   1.00
C3       0.89035    0.94021    0.62248   1.00
C3       0.91707    0.88009    0.70762   1.00
C3       0.93904    0.88958    0.62241   1.00
C2       0.91493    0.91515    0.77018   1.00
C2       0.91493    0.91515    0.55982   1.00
C3a      0.91330    0.95045    0.74901   1.00
C3       0.89053    0.94029    0.58118   1.00
C3       0.91686    0.88016    0.74889   1.00
C3a      0.93931    0.88957    0.58097   1.00
H1       0.91252    0.97783    0.69206   1.00
H1       0.87075    0.95992    0.63750   1.00
C5       0.91150    0.98846    0.77090   1.00
H1       0.87145    0.96013    0.56567   1.00
H1       0.91791    0.85268    0.76444   1.00
C5       0.96595    0.86190    0.55965   1.00
H1       0.95902    0.87036    0.63753   1.00
H1       0.91780    0.85226    0.69270   1.00
H2       0.95703    0.83151    0.56663   1.00
H2       0.96325    0.86552    0.52753   1.00
N1       1.00656    0.86843    0.57105   1.00
C6       1.02179    0.86330    0.60690   1.00
C6       1.03564    0.88030    0.54743   1.00
C6       1.06104    0.87218    0.60627   1.00
C6       1.06984    0.88300    0.56844   1.00
H3       1.00548    0.85365    0.63219   1.00
H3       1.03224    0.88679    0.51669   1.00
H3       1.08103    0.87086    0.63064   1.00
H3       1.09804    0.89183    0.55742   1.00
H2       0.91104    0.98224    0.80272   1.00
H2       0.93768    1.00663    0.76499   1.00
N1       0.87668    1.01031    0.75977   1.00
C6       0.84531    1.02185    0.78422   1.00
C6       0.86710    1.02478    0.72215   1.00
C6       0.81832    1.04213    0.76223   1.00
C6       0.83170    1.04391    0.72409   1.00
H3       0.84311    1.01553    0.81508   1.00
H3       0.88475    1.02089    0.69624   1.00
H3       0.79133    1.05444    0.77295   1.00
H3       0.81691    1.05781    0.69995   1.00
C4       0.41535    0.41484    1.14415   1.00
C4       0.41465    0.41516    1.18585   1.00
C3       0.41350    0.37970    1.12251   1.00
C3       0.39035    0.38979    1.20752   1.00
C3       0.41707    0.44991    1.12238   1.00
C3       0.43904    0.44042    1.20759   1.00
C2       0.41493    0.41485    1.05982   1.00
C2       0.41493    0.41485    1.27018   1.00
C3a      0.41330    0.37955    1.08099   1.00
C3       0.39053    0.38971    1.24882   1.00
C3       0.41686    0.44984    1.08111   1.00
C3a      0.43931    0.44043    1.24903   1.00
H1       0.41252    0.35217    1.13794   1.00
H1       0.37075    0.37008    1.19250   1.00
C5       0.41150    0.34154    1.05910   1.00
H1       0.37145    0.36987    1.26433   1.00
H1       0.41791    0.47732    1.06556   1.00
C5       0.46595    0.46810    1.27035   1.00
H1       0.45902    0.45964    1.19247   1.00
H1       0.41780    0.47774    1.13730   1.00
H2       0.45703    0.49849    1.26337   1.00
H2       0.46325    0.46448    1.30247   1.00
N1       0.50656    0.46157    1.25895   1.00
C6       0.52179    0.46670    1.22310   1.00
C6       0.53564    0.44970    1.28257   1.00
C6       0.56104    0.45782    1.22373   1.00
C6       0.56984    0.44700    1.26156   1.00
H3       0.50548    0.47635    1.19781   1.00
H3       0.53224    0.44321    1.31331   1.00
H3       0.58103    0.45914    1.19936   1.00
H3       0.59804    0.43817    1.27258   1.00
H2       0.41104    0.34776    1.02728   1.00
H2       0.43768    0.32337    1.06501   1.00
N1       0.37668    0.31969    1.07023   1.00
C6       0.34531    0.30815    1.04578   1.00
C6       0.36710    0.30522    1.10785   1.00
C6       0.31832    0.28787    1.06777   1.00
C6       0.33170    0.28609    1.10591   1.00
H3       0.34311    0.31447    1.01492   1.00
H3       0.38475    0.30911    1.13376   1.00
H3       0.29133    0.27556    1.05705   1.00
H3       0.31691    0.27219    1.13005   1.00
C4       0.41484    0.64415    0.91535   1.00
C4       0.41516    0.68585    0.91465   1.00
C3       0.37970    0.62251    0.91350   1.00
C3       0.38979    0.70752    0.89035   1.00
C3       0.44991    0.62238    0.91707   1.00
C3       0.44042    0.70759    0.93904   1.00
C2       0.41485    0.55982    0.91493   1.00
C2       0.41485    0.77018    0.91493   1.00
C3a      0.37955    0.58099    0.91330   1.00
C3       0.38971    0.74882    0.89053   1.00
C3       0.44984    0.58111    0.91686   1.00
C3a      0.44043    0.74903    0.93931   1.00
H1       0.35217    0.63794    0.91252   1.00
H1       0.37008    0.69250    0.87075   1.00
C5       0.34154    0.55910    0.91150   1.00
H1       0.36987    0.76433    0.87145   1.00
H1       0.47732    0.56556    0.91791   1.00
C5       0.46810    0.77035    0.96595   1.00
H1       0.45964    0.69247    0.95902   1.00
H1       0.47774    0.63730    0.91780   1.00
H2       0.49849    0.76337    0.95703   1.00
H2       0.46448    0.80247    0.96325   1.00
N1       0.46157    0.75895    1.00656   1.00
C6       0.46670    0.72310    1.02179   1.00
C6       0.44970    0.78257    1.03564   1.00
C6       0.45782    0.72373    1.06104   1.00
C6       0.44700    0.76156    1.06984   1.00
H3       0.47635    0.69781    1.00548   1.00
H3       0.44321    0.81331    1.03224   1.00
H3       0.45914    0.69936    1.08103   1.00
H3       0.43817    0.77258    1.09804   1.00
H2       0.34776    0.52728    0.91104   1.00
H2       0.32337    0.56501    0.93768   1.00
N1       0.31969    0.57023    0.87668   1.00
C6       0.30815    0.54578    0.84531   1.00
C6       0.30522    0.60785    0.86710   1.00
C6       0.28787    0.56777    0.81832   1.00
C6       0.28609    0.60591    0.83170   1.00
H3       0.31447    0.51492    0.84311   1.00
H3       0.30911    0.63376    0.88475   1.00
H3       0.27556    0.55705    0.79133   1.00
H3       0.27219    0.63005    0.81691   1.00
C4       0.18585    0.41535    0.91516   1.00
C4       0.14415    0.41465    0.91484   1.00
C3       0.20749    0.41350    0.95030   1.00
C3       0.12248    0.39035    0.94021   1.00
C3       0.20762    0.41707    0.88009   1.00
C3       0.12241    0.43904    0.88958   1.00
C2       0.27018    0.41493    0.91515   1.00
C2       0.05982    0.41493    0.91515   1.00
C3a      0.24901    0.41330    0.95045   1.00
C3       0.08118    0.39053    0.94029   1.00
C3       0.24889    0.41686    0.88016   1.00
C3a      0.08097    0.43931    0.88957   1.00
H1       0.19206    0.41252    0.97783   1.00
H1       0.13750    0.37075    0.95992   1.00
C5       0.27090    0.41150    0.98846   1.00
H1       0.06567    0.37145    0.96013   1.00
H1       0.26444    0.41791    0.85268   1.00
C5       0.05965    0.46595    0.86190   1.00
H1       0.13753    0.45902    0.87036   1.00
H1       0.19270    0.41780    0.85226   1.00
H2       0.06663    0.45703    0.83151   1.00
H2       0.02753    0.46325    0.86552   1.00
N1       0.07105    0.50656    0.86843   1.00
C6       0.10690    0.52179    0.86330   1.00
C6       0.04743    0.53564    0.88030   1.00
C6       0.10627    0.56104    0.87218   1.00
C6       0.06844    0.56984    0.88300   1.00
H3       0.13219    0.50548    0.85365   1.00
H3       0.01669    0.53224    0.88679   1.00
H3       0.13064    0.58103    0.87086   1.00
H3       0.05742    0.59804    0.89183   1.00
H2       0.30272    0.41104    0.98224   1.00
H2       0.26499    0.43768    1.00663   1.00
N1       0.25977    0.37668    1.01031   1.00
C6       0.28422    0.34531    1.02185   1.00
C6       0.22215    0.36710    1.02478   1.00
C6       0.26223    0.31832    1.04213   1.00
C6       0.22409    0.33170    1.04391   1.00
H3       0.31508    0.34311    1.01553   1.00
H3       0.19624    0.38475    1.02089   1.00
H3       0.27295    0.29133    1.05444   1.00
H3       0.19995    0.31691    1.05781   1.00
C4       0.64415    0.41535    0.91484   1.00
C4       0.68585    0.41465    0.91516   1.00
C3       0.62251    0.41350    0.87970   1.00
C3       0.70752    0.39035    0.88979   1.00
C3       0.62238    0.41707    0.94991   1.00
C3       0.70759    0.43904    0.94042   1.00
C2       0.55982    0.41493    0.91485   1.00
C2       0.77018    0.41493    0.91485   1.00
C3a      0.58099    0.41330    0.87955   1.00
C3       0.74882    0.39053    0.88971   1.00
C3       0.58111    0.41686    0.94984   1.00
C3a      0.74903    0.43931    0.94043   1.00
H1       0.63794    0.41252    0.85217   1.00
H1       0.69250    0.37075    0.87008   1.00
C5       0.55910    0.41150    0.84154   1.00
H1       0.76433    0.37145    0.86987   1.00
H1       0.56556    0.41791    0.97732   1.00
C5       0.77035    0.46595    0.96810   1.00
H1       0.69247    0.45902    0.95964   1.00
H1       0.63730    0.41780    0.97774   1.00
H2       0.76337    0.45703    0.99849   1.00
H2       0.80247    0.46325    0.96448   1.00
N1       0.75895    0.50656    0.96157   1.00
C6       0.72310    0.52179    0.96670   1.00
C6       0.78257    0.53564    0.94970   1.00
C6       0.72373    0.56104    0.95782   1.00
C6       0.76156    0.56984    0.94700   1.00
H3       0.69781    0.50548    0.97635   1.00
H3       0.81331    0.53224    0.94321   1.00
H3       0.69936    0.58103    0.95914   1.00
H3       0.77258    0.59804    0.93817   1.00
H2       0.52728    0.41104    0.84776   1.00
H2       0.56501    0.43768    0.82337   1.00
N1       0.57023    0.37668    0.81969   1.00
C6       0.54578    0.34531    0.80815   1.00
C6       0.60785    0.36710    0.80522   1.00
C6       0.56777    0.31832    0.78787   1.00
C6       0.60591    0.33170    0.78609   1.00
H3       0.51492    0.34311    0.81447   1.00
H3       0.63376    0.38475    0.80911   1.00
H3       0.55705    0.29133    0.77556   1.00
H3       0.63005    0.31691    0.77219   1.00
C4       0.41516    0.18585    0.91535   1.00
C4       0.41484    0.14415    0.91465   1.00
C3       0.45030    0.20749    0.91350   1.00
C3       0.44021    0.12248    0.89035   1.00
C3       0.38009    0.20762    0.91707   1.00
C3       0.38958    0.12241    0.93904   1.00
C2       0.41515    0.27018    0.91493   1.00
C2       0.41515    0.05982    0.91493   1.00
C3a      0.45045    0.24901    0.91330   1.00
C3       0.44029    0.08118    0.89053   1.00
C3       0.38016    0.24889    0.91686   1.00
C3a      0.38957    0.08097    0.93931   1.00
H1       0.47783    0.19206    0.91252   1.00
H1       0.45992    0.13750    0.87075   1.00
C5       0.48846    0.27090    0.91150   1.00
H1       0.46013    0.06567    0.87145   1.00
H1       0.35268    0.26444    0.91791   1.00
C5       0.36190    0.05965    0.96595   1.00
H1       0.37036    0.13753    0.95902   1.00
H1       0.35226    0.19270    0.91780   1.00
H2       0.33151    0.06663    0.95703   1.00
H2       0.36552    0.02753    0.96325   1.00
N1       0.36843    0.07105    1.00656   1.00
C6       0.36330    0.10690    1.02179   1.00
C6       0.38030    0.04743    1.03564   1.00
C6       0.37218    0.10627    1.06104   1.00
C6       0.38300    0.06844    1.06984   1.00
H3       0.35365    0.13219    1.00548   1.00
H3       0.38679    0.01669    1.03224   1.00
H3       0.37086    0.13064    1.08103   1.00
H3       0.39183    0.05742    1.09804   1.00
H2       0.48224    0.30272    0.91104   1.00
H2       0.50663    0.26499    0.93768   1.00
N1       0.51031    0.25977    0.87668   1.00
C6       0.52185    0.28422    0.84531   1.00
C6       0.52478    0.22215    0.86710   1.00
C6       0.54213    0.26223    0.81832   1.00
C6       0.54391    0.22409    0.83170   1.00
H3       0.51553    0.31508    0.84311   1.00
H3       0.52089    0.19624    0.88475   1.00
H3       0.55444    0.27295    0.79133   1.00
H3       0.55781    0.19995    0.81691   1.00
C4       0.41535    0.41516    0.68585   1.00
C4       0.41465    0.41484    0.64415   1.00
C3       0.41350    0.45030    0.70749   1.00
C3       0.39035    0.44021    0.62248   1.00
C3       0.41707    0.38009    0.70762   1.00
C3       0.43904    0.38958    0.62241   1.00
C2       0.41493    0.41515    0.77018   1.00
C2       0.41493    0.41515    0.55982   1.00
C3a      0.41330    0.45045    0.74901   1.00
C3       0.39053    0.44029    0.58118   1.00
C3       0.41686    0.38016    0.74889   1.00
C3a      0.43931    0.38957    0.58097   1.00
H1       0.41252    0.47783    0.69206   1.00
H1       0.37075    0.45992    0.63750   1.00
C5       0.41150    0.48846    0.77090   1.00
H1       0.37145    0.46013    0.56567   1.00
H1       0.41791    0.35268    0.76444   1.00
C5       0.46595    0.36190    0.55965   1.00
H1       0.45902    0.37036    0.63753   1.00
H1       0.41780    0.35226    0.69270   1.00
H2       0.45703    0.33151    0.56663   1.00
H2       0.46325    0.36552    0.52753   1.00
N1       0.50656    0.36843    0.57105   1.00
C6       0.52179    0.36330    0.60690   1.00
C6       0.53564    0.38030    0.54743   1.00
C6       0.56104    0.37218    0.60627   1.00
C6       0.56984    0.38300    0.56844   1.00
H3       0.50548    0.35365    0.63219   1.00
H3       0.53224    0.38679    0.51669   1.00
H3       0.58103    0.37086    0.63064   1.00
H3       0.59804    0.39183    0.55742   1.00
H2       0.41104    0.48224    0.80272   1.00
H2       0.43768    0.50663    0.76499   1.00
N1       0.37668    0.51031    0.75977   1.00
C6       0.34531    0.52185    0.78422   1.00
C6       0.36710    0.52478    0.72215   1.00
C6       0.31832    0.54213    0.76223   1.00
C6       0.33170    0.54391    0.72409   1.00
H3       0.34311    0.51553    0.81508   1.00
H3       0.38475    0.52089    0.69624   1.00
H3       0.29133    0.55444    0.77295   1.00
H3       0.31691    0.55781    0.69995   1.00
C4       0.41535    0.91484    0.64415   1.00
C4       0.41465    0.91516    0.68585   1.00
C3       0.41350    0.87970    0.62251   1.00
C3       0.39035    0.88979    0.70752   1.00
C3       0.41707    0.94991    0.62238   1.00
C3       0.43904    0.94042    0.70759   1.00
C2       0.41493    0.91485    0.55982   1.00
C2       0.41493    0.91485    0.77018   1.00
C3a      0.41330    0.87955    0.58099   1.00
C3       0.39053    0.88971    0.74882   1.00
C3       0.41686    0.94984    0.58111   1.00
C3a      0.43931    0.94043    0.74903   1.00
H1       0.41252    0.85217    0.63794   1.00
H1       0.37075    0.87008    0.69250   1.00
C5       0.41150    0.84154    0.55910   1.00
H1       0.37145    0.86987    0.76433   1.00
H1       0.41791    0.97732    0.56556   1.00
C5       0.46595    0.96810    0.77035   1.00
H1       0.45902    0.95964    0.69247   1.00
H1       0.41780    0.97774    0.63730   1.00
H2       0.45703    0.99849    0.76337   1.00
H2       0.46325    0.96448    0.80247   1.00
N1       0.50656    0.96157    0.75895   1.00
C6       0.52179    0.96670    0.72310   1.00
C6       0.53564    0.94970    0.78257   1.00
C6       0.56104    0.95782    0.72373   1.00
C6       0.56984    0.94700    0.76156   1.00
H3       0.50548    0.97635    0.69781   1.00
H3       0.53224    0.94321    0.81331   1.00
H3       0.58103    0.95914    0.69936   1.00
H3       0.59804    0.93817    0.77258   1.00
H2       0.41104    0.84776    0.52728   1.00
H2       0.43768    0.82337    0.56501   1.00
N1       0.37668    0.81969    0.57023   1.00
C6       0.34531    0.80815    0.54578   1.00
C6       0.36710    0.80522    0.60785   1.00
C6       0.31832    0.78787    0.56777   1.00
C6       0.33170    0.78609    0.60591   1.00
H3       0.34311    0.81447    0.51492   1.00
H3       0.38475    0.80911    0.63376   1.00
H3       0.29133    0.77556    0.55705   1.00
H3       0.31691    0.77219    0.63005   1.00
C4       0.41484    1.14415    0.41535   1.00
C4       0.41516    1.18585    0.41465   1.00
C3       0.37970    1.12251    0.41350   1.00
C3       0.38979    1.20752    0.39035   1.00
C3       0.44991    1.12238    0.41707   1.00
C3       0.44042    1.20759    0.43904   1.00
C2       0.41485    1.05982    0.41493   1.00
C2       0.41485    1.27018    0.41493   1.00
C3a      0.37955    1.08099    0.41330   1.00
C3       0.38971    1.24882    0.39053   1.00
C3       0.44984    1.08111    0.41686   1.00
C3a      0.44043    1.24903    0.43931   1.00
H1       0.35217    1.13794    0.41252   1.00
H1       0.37008    1.19250    0.37075   1.00
C5       0.34154    1.05910    0.41150   1.00
H1       0.36987    1.26433    0.37145   1.00
H1       0.47732    1.06556    0.41791   1.00
C5       0.46810    1.27035    0.46595   1.00
H1       0.45964    1.19247    0.45902   1.00
H1       0.47774    1.13730    0.41780   1.00
H2       0.49849    1.26337    0.45703   1.00
H2       0.46448    1.30247    0.46325   1.00
N1       0.46157    1.25895    0.50656   1.00
C6       0.46670    1.22310    0.52179   1.00
C6       0.44970    1.28257    0.53564   1.00
C6       0.45782    1.22373    0.56104   1.00
C6       0.44700    1.26156    0.56984   1.00
H3       0.47635    1.19781    0.50548   1.00
H3       0.44321    1.31331    0.53224   1.00
H3       0.45914    1.19936    0.58103   1.00
H3       0.43817    1.27258    0.59804   1.00
H2       0.34776    1.02728    0.41104   1.00
H2       0.32337    1.06501    0.43768   1.00
N1       0.31969    1.07023    0.37668   1.00
C6       0.30815    1.04578    0.34531   1.00
C6       0.30522    1.10785    0.36710   1.00
C6       0.28787    1.06777    0.31832   1.00
C6       0.28609    1.10591    0.33170   1.00
H3       0.31447    1.01492    0.34311   1.00
H3       0.30911    1.13376    0.38475   1.00
H3       0.27556    1.05705    0.29133   1.00
H3       0.27219    1.13005    0.31691   1.00
C4       0.18585    0.91535    0.41516   1.00
C4       0.14415    0.91465    0.41484   1.00
C3       0.20749    0.91350    0.45030   1.00
C3       0.12248    0.89035    0.44021   1.00
C3       0.20762    0.91707    0.38009   1.00
C3       0.12241    0.93904    0.38958   1.00
C2       0.27018    0.91493    0.41515   1.00
C2       0.05982    0.91493    0.41515   1.00
C3a      0.24901    0.91330    0.45045   1.00
C3       0.08118    0.89053    0.44029   1.00
C3       0.24889    0.91686    0.38016   1.00
C3a      0.08097    0.93931    0.38957   1.00
H1       0.19206    0.91252    0.47783   1.00
H1       0.13750    0.87075    0.45992   1.00
C5       0.27090    0.91150    0.48846   1.00
H1       0.06567    0.87145    0.46013   1.00
H1       0.26444    0.91791    0.35268   1.00
C5       0.05965    0.96595    0.36190   1.00
H1       0.13753    0.95902    0.37036   1.00
H1       0.19270    0.91780    0.35226   1.00
H2       0.06663    0.95703    0.33151   1.00
H2       0.02753    0.96325    0.36552   1.00
N1       0.07105    1.00656    0.36843   1.00
C6       0.10690    1.02179    0.36330   1.00
C6       0.04743    1.03564    0.38030   1.00
C6       0.10627    1.06104    0.37218   1.00
C6       0.06844    1.06984    0.38300   1.00
H3       0.13219    1.00548    0.35365   1.00
H3       0.01669    1.03224    0.38679   1.00
H3       0.13064    1.08103    0.37086   1.00
H3       0.05742    1.09804    0.39183   1.00
H2       0.30272    0.91104    0.48224   1.00
H2       0.26499    0.93768    0.50663   1.00
N1       0.25977    0.87668    0.51031   1.00
C6       0.28422    0.84531    0.52185   1.00
C6       0.22215    0.86710    0.52478   1.00
C6       0.26223    0.81832    0.54213   1.00
C6       0.22409    0.83170    0.54391   1.00
H3       0.31508    0.84311    0.51553   1.00
H3       0.19624    0.88475    0.52089   1.00
H3       0.27295    0.79133    0.55444   1.00
H3       0.19995    0.81691    0.55781   1.00
C4       0.64415    0.91535    0.41484   1.00
C4       0.68585    0.91465    0.41516   1.00
C3       0.62251    0.91350    0.37970   1.00
C3       0.70752    0.89035    0.38979   1.00
C3       0.62238    0.91707    0.44991   1.00
C3       0.70759    0.93904    0.44042   1.00
C2       0.55982    0.91493    0.41485   1.00
C2       0.77018    0.91493    0.41485   1.00
C3a      0.58099    0.91330    0.37955   1.00
C3       0.74882    0.89053    0.38971   1.00
C3       0.58111    0.91686    0.44984   1.00
C3a      0.74903    0.93931    0.44043   1.00
H1       0.63794    0.91252    0.35217   1.00
H1       0.69250    0.87075    0.37008   1.00
C5       0.55910    0.91150    0.34154   1.00
H1       0.76433    0.87145    0.36987   1.00
H1       0.56556    0.91791    0.47732   1.00
C5       0.77035    0.96595    0.46810   1.00
H1       0.69247    0.95902    0.45964   1.00
H1       0.63730    0.91780    0.47774   1.00
H2       0.76337    0.95703    0.49849   1.00
H2       0.80247    0.96325    0.46448   1.00
N1       0.75895    1.00656    0.46157   1.00
C6       0.72310    1.02179    0.46670   1.00
C6       0.78257    1.03564    0.44970   1.00
C6       0.72373    1.06104    0.45782   1.00
C6       0.76156    1.06984    0.44700   1.00
H3       0.69781    1.00548    0.47635   1.00
H3       0.81331    1.03224    0.44321   1.00
H3       0.69936    1.08103    0.45914   1.00
H3       0.77258    1.09804    0.43817   1.00
H2       0.52728    0.91104    0.34776   1.00
H2       0.56501    0.93768    0.32337   1.00
N1       0.57023    0.87668    0.31969   1.00
C6       0.54578    0.84531    0.30815   1.00
C6       0.60785    0.86710    0.30522   1.00
C6       0.56777    0.81832    0.28787   1.00
C6       0.60591    0.83170    0.28609   1.00
H3       0.51492    0.84311    0.31447   1.00
H3       0.63376    0.88475    0.30911   1.00
H3       0.55705    0.79133    0.27556   1.00
H3       0.63005    0.81691    0.27219   1.00
C4       0.41516    0.68585    0.41535   1.00
C4       0.41484    0.64415    0.41465   1.00
C3       0.45030    0.70749    0.41350   1.00
C3       0.44021    0.62248    0.39035   1.00
C3       0.38009    0.70762    0.41707   1.00
C3       0.38958    0.62241    0.43904   1.00
C2       0.41515    0.77018    0.41493   1.00
C2       0.41515    0.55982    0.41493   1.00
C3a      0.45045    0.74901    0.41330   1.00
C3       0.44029    0.58118    0.39053   1.00
C3       0.38016    0.74889    0.41686   1.00
C3a      0.38957    0.58097    0.43931   1.00
H1       0.47783    0.69206    0.41252   1.00
H1       0.45992    0.63750    0.37075   1.00
C5       0.48846    0.77090    0.41150   1.00
H1       0.46013    0.56567    0.37145   1.00
H1       0.35268    0.76444    0.41791   1.00
C5       0.36190    0.55965    0.46595   1.00
H1       0.37036    0.63753    0.45902   1.00
H1       0.35226    0.69270    0.41780   1.00
H2       0.33151    0.56663    0.45703   1.00
H2       0.36552    0.52753    0.46325   1.00
N1       0.36843    0.57105    0.50656   1.00
C6       0.36330    0.60690    0.52179   1.00
C6       0.38030    0.54743    0.53564   1.00
C6       0.37218    0.60627    0.56104   1.00
C6       0.38300    0.56844    0.56984   1.00
H3       0.35365    0.63219    0.50548   1.00
H3       0.38679    0.51669    0.53224   1.00
H3       0.37086    0.63064    0.58103   1.00
H3       0.39183    0.55742    0.59804   1.00
H2       0.48224    0.80272    0.41104   1.00
H2       0.50663    0.76499    0.43768   1.00
N1       0.51031    0.75977    0.37668   1.00
C6       0.52185    0.78422    0.34531   1.00
C6       0.52478    0.72215    0.36710   1.00
C6       0.54213    0.76223    0.31832   1.00
C6       0.54391    0.72409    0.33170   1.00
H3       0.51553    0.81508    0.34311   1.00
H3       0.52089    0.69624    0.38475   1.00
H3       0.55444    0.77295    0.29133   1.00
H3       0.55781    0.69995    0.31691   1.00
C4       0.41535    0.91516    0.18585   1.00
C4       0.41465    0.91484    0.14415   1.00
C3       0.41350    0.95030    0.20749   1.00
C3       0.39035    0.94021    0.12248   1.00
C3       0.41707    0.88009    0.20762   1.00
C3       0.43904    0.88958    0.12241   1.00
C2       0.41493    0.91515    0.27018   1.00
C2       0.41493    0.91515    0.05982   1.00
C3a      0.41330    0.95045    0.24901   1.00
C3       0.39053    0.94029    0.08118   1.00
C3       0.41686    0.88016    0.24889   1.00
C3a      0.43931    0.88957    0.08097   1.00
H1       0.41252    0.97783    0.19206   1.00
H1       0.37075    0.95992    0.13750   1.00
C5       0.41150    0.98846    0.27090   1.00
H1       0.37145    0.96013    0.06567   1.00
H1       0.41791    0.85268    0.26444   1.00
C5       0.46595    0.86190    0.05965   1.00
H1       0.45902    0.87036    0.13753   1.00
H1       0.41780    0.85226    0.19270   1.00
H2       0.45703    0.83151    0.06663   1.00
H2       0.46325    0.86552    0.02753   1.00
N1       0.50656    0.86843    0.07105   1.00
C6       0.52179    0.86330    0.10690   1.00
C6       0.53564    0.88030    0.04743   1.00
C6       0.56104    0.87218    0.10627   1.00
C6       0.56984    0.88300    0.06844   1.00
H3       0.50548    0.85365    0.13219   1.00
H3       0.53224    0.88679    0.01669   1.00
H3       0.58103    0.87086    0.13064   1.00
H3       0.59804    0.89183    0.05742   1.00
H2       0.41104    0.98224    0.30272   1.00
H2       0.43768    1.00663    0.26499   1.00
N1       0.37668    1.01031    0.25977   1.00
C6       0.34531    1.02185    0.28422   1.00
C6       0.36710    1.02478    0.22215   1.00
C6       0.31832    1.04213    0.26223   1.00
C6       0.33170    1.04391    0.22409   1.00
H3       0.34311    1.01553    0.31508   1.00
H3       0.38475    1.02089    0.19624   1.00
H3       0.29133    1.05444    0.27295   1.00
H3       0.31691    1.05781    0.19995   1.00
C4       0.91535    0.41484    0.64415   1.00
C4       0.91465    0.41516    0.68585   1.00
C3       0.91350    0.37970    0.62251   1.00
C3       0.89035    0.38979    0.70752   1.00
C3       0.91707    0.44991    0.62238   1.00
C3       0.93904    0.44042    0.70759   1.00
C2       0.91493    0.41485    0.55982   1.00
C2       0.91493    0.41485    0.77018   1.00
C3a      0.91330    0.37955    0.58099   1.00
C3       0.89053    0.38971    0.74882   1.00
C3       0.91686    0.44984    0.58111   1.00
C3a      0.93931    0.44043    0.74903   1.00
H1       0.91252    0.35217    0.63794   1.00
H1       0.87075    0.37008    0.69250   1.00
C5       0.91150    0.34154    0.55910   1.00
H1       0.87145    0.36987    0.76433   1.00
H1       0.91791    0.47732    0.56556   1.00
C5       0.96595    0.46810    0.77035   1.00
H1       0.95902    0.45964    0.69247   1.00
H1       0.91780    0.47774    0.63730   1.00
H2       0.95703    0.49849    0.76337   1.00
H2       0.96325    0.46448    0.80247   1.00
N1       1.00656    0.46157    0.75895   1.00
C6       1.02179    0.46670    0.72310   1.00
C6       1.03564    0.44970    0.78257   1.00
C6       1.06104    0.45782    0.72373   1.00
C6       1.06984    0.44700    0.76156   1.00
H3       1.00548    0.47635    0.69781   1.00
H3       1.03224    0.44321    0.81331   1.00
H3       1.08103    0.45914    0.69936   1.00
H3       1.09804    0.43817    0.77258   1.00
H2       0.91104    0.34776    0.52728   1.00
H2       0.93768    0.32337    0.56501   1.00
N1       0.87668    0.31969    0.57023   1.00
C6       0.84531    0.30815    0.54578   1.00
C6       0.86710    0.30522    0.60785   1.00
C6       0.81832    0.28787    0.56777   1.00
C6       0.83170    0.28609    0.60591   1.00
H3       0.84311    0.31447    0.51492   1.00
H3       0.88475    0.30911    0.63376   1.00
H3       0.79133    0.27556    0.55705   1.00
H3       0.81691    0.27219    0.63005   1.00
C4       0.91484    0.64415    0.41535   1.00
C4       0.91516    0.68585    0.41465   1.00
C3       0.87970    0.62251    0.41350   1.00
C3       0.88979    0.70752    0.39035   1.00
C3       0.94991    0.62238    0.41707   1.00
C3       0.94042    0.70759    0.43904   1.00
C2       0.91485    0.55982    0.41493   1.00
C2       0.91485    0.77018    0.41493   1.00
C3a      0.87955    0.58099    0.41330   1.00
C3       0.88971    0.74882    0.39053   1.00
C3       0.94984    0.58111    0.41686   1.00
C3a      0.94043    0.74903    0.43931   1.00
H1       0.85217    0.63794    0.41252   1.00
H1       0.87008    0.69250    0.37075   1.00
C5       0.84154    0.55910    0.41150   1.00
H1       0.86987    0.76433    0.37145   1.00
H1       0.97732    0.56556    0.41791   1.00
C5       0.96810    0.77035    0.46595   1.00
H1       0.95964    0.69247    0.45902   1.00
H1       0.97774    0.63730    0.41780   1.00
H2       0.99849    0.76337    0.45703   1.00
H2       0.96448    0.80247    0.46325   1.00
N1       0.96157    0.75895    0.50656   1.00
C6       0.96670    0.72310    0.52179   1.00
C6       0.94970    0.78257    0.53564   1.00
C6       0.95782    0.72373    0.56104   1.00
C6       0.94700    0.76156    0.56984   1.00
H3       0.97635    0.69781    0.50548   1.00
H3       0.94321    0.81331    0.53224   1.00
H3       0.95914    0.69936    0.58103   1.00
H3       0.93817    0.77258    0.59804   1.00
H2       0.84776    0.52728    0.41104   1.00
H2       0.82337    0.56501    0.43768   1.00
N1       0.81969    0.57023    0.37668   1.00
C6       0.80815    0.54578    0.34531   1.00
C6       0.80522    0.60785    0.36710   1.00
C6       0.78787    0.56777    0.31832   1.00
C6       0.78609    0.60591    0.33170   1.00
H3       0.81447    0.51492    0.34311   1.00
H3       0.80911    0.63376    0.38475   1.00
H3       0.77556    0.55705    0.29133   1.00
H3       0.77219    0.63005    0.31691   1.00
C4       0.68585    0.41535    0.41516   1.00
C4       0.64415    0.41465    0.41484   1.00
C3       0.70749    0.41350    0.45030   1.00
C3       0.62248    0.39035    0.44021   1.00
C3       0.70762    0.41707    0.38009   1.00
C3       0.62241    0.43904    0.38958   1.00
C2       0.77018    0.41493    0.41515   1.00
C2       0.55982    0.41493    0.41515   1.00
C3a      0.74901    0.41330    0.45045   1.00
C3       0.58118    0.39053    0.44029   1.00
C3       0.74889    0.41686    0.38016   1.00
C3a      0.58097    0.43931    0.38957   1.00
H1       0.69206    0.41252    0.47783   1.00
H1       0.63750    0.37075    0.45992   1.00
C5       0.77090    0.41150    0.48846   1.00
H1       0.56567    0.37145    0.46013   1.00
H1       0.76444    0.41791    0.35268   1.00
C5       0.55965    0.46595    0.36190   1.00
H1       0.63753    0.45902    0.37036   1.00
H1       0.69270    0.41780    0.35226   1.00
H2       0.56663    0.45703    0.33151   1.00
H2       0.52753    0.46325    0.36552   1.00
N1       0.57105    0.50656    0.36843   1.00
C6       0.60690    0.52179    0.36330   1.00
C6       0.54743    0.53564    0.38030   1.00
C6       0.60627    0.56104    0.37218   1.00
C6       0.56844    0.56984    0.38300   1.00
H3       0.63219    0.50548    0.35365   1.00
H3       0.51669    0.53224    0.38679   1.00
H3       0.63064    0.58103    0.37086   1.00
H3       0.55742    0.59804    0.39183   1.00
H2       0.80272    0.41104    0.48224   1.00
H2       0.76499    0.43768    0.50663   1.00
N1       0.75977    0.37668    0.51031   1.00
C6       0.78422    0.34531    0.52185   1.00
C6       0.72215    0.36710    0.52478   1.00
C6       0.76223    0.31832    0.54213   1.00
C6       0.72409    0.33170    0.54391   1.00
H3       0.81508    0.34311    0.51553   1.00
H3       0.69624    0.38475    0.52089   1.00
H3       0.77295    0.29133    0.55444   1.00
H3       0.69995    0.31691    0.55781   1.00
C4       1.14415    0.41535    0.41484   1.00
C4       1.18585    0.41465    0.41516   1.00
C3       1.12251    0.41350    0.37970   1.00
C3       1.20752    0.39035    0.38979   1.00
C3       1.12238    0.41707    0.44991   1.00
C3       1.20759    0.43904    0.44042   1.00
C2       1.05982    0.41493    0.41485   1.00
C2       1.27018    0.41493    0.41485   1.00
C3a      1.08099    0.41330    0.37955   1.00
C3       1.24882    0.39053    0.38971   1.00
C3       1.08111    0.41686    0.44984   1.00
C3a      1.24903    0.43931    0.44043   1.00
H1       1.13794    0.41252    0.35217   1.00
H1       1.19250    0.37075    0.37008   1.00
C5       1.05910    0.41150    0.34154   1.00
H1       1.26433    0.37145    0.36987   1.00
H1       1.06556    0.41791    0.47732   1.00
C5       1.27035    0.46595    0.46810   1.00
H1       1.19247    0.45902    0.45964   1.00
H1       1.13730    0.41780    0.47774   1.00
H2       1.26337    0.45703    0.49849   1.00
H2       1.30247    0.46325    0.46448   1.00
N1       1.25895    0.50656    0.46157   1.00
C6       1.22310    0.52179    0.46670   1.00
C6       1.28257    0.53564    0.44970   1.00
C6       1.22373    0.56104    0.45782   1.00
C6       1.26156    0.56984    0.44700   1.00
H3       1.19781    0.50548    0.47635   1.00
H3       1.31331    0.53224    0.44321   1.00
H3       1.19936    0.58103    0.45914   1.00
H3       1.27258    0.59804    0.43817   1.00
H2       1.02728    0.41104    0.34776   1.00
H2       1.06501    0.43768    0.32337   1.00
N1       1.07023    0.37668    0.31969   1.00
C6       1.04578    0.34531    0.30815   1.00
C6       1.10785    0.36710    0.30522   1.00
C6       1.06777    0.31832    0.28787   1.00
C6       1.10591    0.33170    0.28609   1.00
H3       1.01492    0.34311    0.31447   1.00
H3       1.13376    0.38475    0.30911   1.00
H3       1.05705    0.29133    0.27556   1.00
H3       1.13005    0.31691    0.27219   1.00
C4       0.91516    0.18585    0.41535   1.00
C4       0.91484    0.14415    0.41465   1.00
C3       0.95030    0.20749    0.41350   1.00
C3       0.94021    0.12248    0.39035   1.00
C3       0.88009    0.20762    0.41707   1.00
C3       0.88958    0.12241    0.43904   1.00
C2       0.91515    0.27018    0.41493   1.00
C2       0.91515    0.05982    0.41493   1.00
C3a      0.95045    0.24901    0.41330   1.00
C3       0.94029    0.08118    0.39053   1.00
C3       0.88016    0.24889    0.41686   1.00
C3a      0.88957    0.08097    0.43931   1.00
H1       0.97783    0.19206    0.41252   1.00
H1       0.95992    0.13750    0.37075   1.00
C5       0.98846    0.27090    0.41150   1.00
H1       0.96013    0.06567    0.37145   1.00
H1       0.85268    0.26444    0.41791   1.00
C5       0.86190    0.05965    0.46595   1.00
H1       0.87036    0.13753    0.45902   1.00
H1       0.85226    0.19270    0.41780   1.00
H2       0.83151    0.06663    0.45703   1.00
H2       0.86552    0.02753    0.46325   1.00
N1       0.86843    0.07105    0.50656   1.00
C6       0.86330    0.10690    0.52179   1.00
C6       0.88030    0.04743    0.53564   1.00
C6       0.87218    0.10627    0.56104   1.00
C6       0.88300    0.06844    0.56984   1.00
H3       0.85365    0.13219    0.50548   1.00
H3       0.88679    0.01669    0.53224   1.00
H3       0.87086    0.13064    0.58103   1.00
H3       0.89183    0.05742    0.59804   1.00
H2       0.98224    0.30272    0.41104   1.00
H2       1.00663    0.26499    0.43768   1.00
N1       1.01031    0.25977    0.37668   1.00
C6       1.02185    0.28422    0.34531   1.00
C6       1.02478    0.22215    0.36710   1.00
C6       1.04213    0.26223    0.31832   1.00
C6       1.04391    0.22409    0.33170   1.00
H3       1.01553    0.31508    0.34311   1.00
H3       1.02089    0.19624    0.38475   1.00
H3       1.05444    0.27295    0.29133   1.00
H3       1.05781    0.19995    0.31691   1.00
C4       0.91535    0.41516    0.18585   1.00
C4       0.91465    0.41484    0.14415   1.00
C3       0.91350    0.45030    0.20749   1.00
C3       0.89035    0.44021    0.12248   1.00
C3       0.91707    0.38009    0.20762   1.00
C3       0.93904    0.38958    0.12241   1.00
C2       0.91493    0.41515    0.27018   1.00
C2       0.91493    0.41515    0.05982   1.00
C3a      0.91330    0.45045    0.24901   1.00
C3       0.89053    0.44029    0.08118   1.00
C3       0.91686    0.38016    0.24889   1.00
C3a      0.93931    0.38957    0.08097   1.00
H1       0.91252    0.47783    0.19206   1.00
H1       0.87075    0.45992    0.13750   1.00
C5       0.91150    0.48846    0.27090   1.00
H1       0.87145    0.46013    0.06567   1.00
H1       0.91791    0.35268    0.26444   1.00
C5       0.96595    0.36190    0.05965   1.00
H1       0.95902    0.37036    0.13753   1.00
H1       0.91780    0.35226    0.19270   1.00
H2       0.95703    0.33151    0.06663   1.00
H2       0.96325    0.36552    0.02753   1.00
N1       1.00656    0.36843    0.07105   1.00
C6       1.02179    0.36330    0.10690   1.00
C6       1.03564    0.38030    0.04743   1.00
C6       1.06104    0.37218    0.10627   1.00
C6       1.06984    0.38300    0.06844   1.00
H3       1.00548    0.35365    0.13219   1.00
H3       1.03224    0.38679    0.01669   1.00
H3       1.08103    0.37086    0.13064   1.00
H3       1.09804    0.39183    0.05742   1.00
H2       0.91104    0.48224    0.30272   1.00
H2       0.93768    0.50663    0.26499   1.00
N1       0.87668    0.51031    0.25977   1.00
C6       0.84531    0.52185    0.28422   1.00
C6       0.86710    0.52478    0.22215   1.00
C6       0.81832    0.54213    0.26223   1.00
C6       0.83170    0.54391    0.22409   1.00
H3       0.84311    0.51553    0.31508   1.00
H3       0.88475    0.52089    0.19624   1.00
H3       0.79133    0.55444    0.27295   1.00
H3       0.81691    0.55781    0.19995   1.00
