data_IRMOF10_SG202_interpen_Ligand3cp_label_b.

_audit_creation_method             'generated by an auxiliary program of Tobunporous'

_symmetry_space_group_name_H-M     'P 1'
_symmetry_Int_Tables_number        1
_symmetry_cell_setting             triclinic

_cell_length_a                    34.2800
_cell_length_b                    34.2800
_cell_length_c                    34.2800
_cell_angle_alpha                 90.0000
_cell_angle_beta                  90.0000
_cell_angle_gamma                 90.0000

loop_
_atom_site_label
_atom_site_fract_x
_atom_site_fract_y
_atom_site_fract_z
_atom_site_occupancy
O1       0.75000    0.75000    0.75000   1.00
Zn1      0.71720    0.78280    0.78280   1.00
Zn1      0.78280    0.71720    0.78280   1.00
Zn1      0.78280    0.78280    0.71720   1.00
Zn1      0.71720    0.71720    0.71720   1.00
O2       0.72650    0.77350    0.83820   1.00
O2       0.72650    0.83820    0.77350   1.00
O2       0.66180    0.77350    0.77350   1.00
O2       0.77350    0.72650    0.83820   1.00
O2       0.83820    0.72650    0.77350   1.00
O2       0.77350    0.66180    0.77350   1.00
O2       0.77350    0.83820    0.72650   1.00
O2       0.83820    0.77350    0.72650   1.00
O2       0.77350    0.77350    0.66180   1.00
O2       0.66180    0.72650    0.72650   1.00
O2       0.72650    0.66180    0.72650   1.00
O2       0.72650    0.72650    0.66180   1.00
C1       0.75000    0.75000    0.85520   1.00
C1       0.75000    0.85520    0.75000   1.00
C1       0.64480    0.75000    0.75000   1.00
C1       0.85520    0.75000    0.75000   1.00
C1       0.75000    0.64480    0.75000   1.00
C1       0.75000    0.75000    0.64480   1.00
O1       0.25000    0.25000    0.75000   1.00
Zn1      0.21720    0.28280    0.78280   1.00
Zn1      0.28280    0.21720    0.78280   1.00
Zn1      0.28280    0.28280    0.71720   1.00
Zn1      0.21720    0.21720    0.71720   1.00
O2       0.22650    0.27350    0.83820   1.00
O2       0.22650    0.33820    0.77350   1.00
O2       0.16180    0.27350    0.77350   1.00
O2       0.27350    0.22650    0.83820   1.00
O2       0.33820    0.22650    0.77350   1.00
O2       0.27350    0.16180    0.77350   1.00
O2       0.27350    0.33820    0.72650   1.00
O2       0.33820    0.27350    0.72650   1.00
O2       0.27350    0.27350    0.66180   1.00
O2       0.16180    0.22650    0.72650   1.00
O2       0.22650    0.16180    0.72650   1.00
O2       0.22650    0.22650    0.66180   1.00
C1       0.25000    0.25000    0.85520   1.00
C1       0.25000    0.35520    0.75000   1.00
C1       0.14480    0.25000    0.75000   1.00
C1       0.35520    0.25000    0.75000   1.00
C1       0.25000    0.14480    0.75000   1.00
C1       0.25000    0.25000    0.64480   1.00
O1       0.25000    0.75000    0.25000   1.00
Zn1      0.21720    0.78280    0.28280   1.00
Zn1      0.28280    0.71720    0.28280   1.00
Zn1      0.28280    0.78280    0.21720   1.00
Zn1      0.21720    0.71720    0.21720   1.00
O2       0.22650    0.77350    0.33820   1.00
O2       0.22650    0.83820    0.27350   1.00
O2       0.16180    0.77350    0.27350   1.00
O2       0.27350    0.72650    0.33820   1.00
O2       0.33820    0.72650    0.27350   1.00
O2       0.27350    0.66180    0.27350   1.00
O2       0.27350    0.83820    0.22650   1.00
O2       0.33820    0.77350    0.22650   1.00
O2       0.27350    0.77350    0.16180   1.00
O2       0.16180    0.72650    0.22650   1.00
O2       0.22650    0.66180    0.22650   1.00
O2       0.22650    0.72650    0.16180   1.00
C1       0.25000    0.75000    0.35520   1.00
C1       0.25000    0.85520    0.25000   1.00
C1       0.14480    0.75000    0.25000   1.00
C1       0.35520    0.75000    0.25000   1.00
C1       0.25000    0.64480    0.25000   1.00
C1       0.25000    0.75000    0.14480   1.00
O1       0.75000    0.25000    0.25000   1.00
Zn1      0.71720    0.28280    0.28280   1.00
Zn1      0.78280    0.21720    0.28280   1.00
Zn1      0.78280    0.28280    0.21720   1.00
Zn1      0.71720    0.21720    0.21720   1.00
O2       0.72650    0.27350    0.33820   1.00
O2       0.72650    0.33820    0.27350   1.00
O2       0.66180    0.27350    0.27350   1.00
O2       0.77350    0.22650    0.33820   1.00
O2       0.83820    0.22650    0.27350   1.00
O2       0.77350    0.16180    0.27350   1.00
O2       0.77350    0.33820    0.22650   1.00
O2       0.83820    0.27350    0.22650   1.00
O2       0.77350    0.27350    0.16180   1.00
O2       0.66180    0.22650    0.22650   1.00
O2       0.72650    0.16180    0.22650   1.00
O2       0.72650    0.22650    0.16180   1.00
C1       0.75000    0.25000    0.35520   1.00
C1       0.75000    0.35520    0.25000   1.00
C1       0.64480    0.25000    0.25000   1.00
C1       0.85520    0.25000    0.25000   1.00
C1       0.75000    0.14480    0.25000   1.00
C1       0.75000    0.25000    0.14480   1.00
O1       0.25000    0.25000    0.25000   1.00
Zn1      0.28280    0.21720    0.21720   1.00
Zn1      0.21720    0.28280    0.21720   1.00
Zn1      0.21720    0.21720    0.28280   1.00
Zn1      0.28280    0.28280    0.28280   1.00
O2       0.27350    0.22650    0.16180   1.00
O2       0.27350    0.16180    0.22650   1.00
O2       0.33820    0.22650    0.22650   1.00
O2       0.22650    0.27350    0.16180   1.00
O2       0.16180    0.27350    0.22650   1.00
O2       0.22650    0.33820    0.22650   1.00
O2       0.22650    0.16180    0.27350   1.00
O2       0.16180    0.22650    0.27350   1.00
O2       0.22650    0.22650    0.33820   1.00
O2       0.33820    0.27350    0.27350   1.00
O2       0.27350    0.33820    0.27350   1.00
O2       0.27350    0.27350    0.33820   1.00
C1       0.25000    0.25000    0.14480   1.00
C1       0.25000    0.14480    0.25000   1.00
C1       0.35520    0.25000    0.25000   1.00
C1       0.14480    0.25000    0.25000   1.00
C1       0.25000    0.35520    0.25000   1.00
C1       0.25000    0.25000    0.35520   1.00
O1       0.75000    0.75000    0.25000   1.00
Zn1      0.78280    0.71720    0.21720   1.00
Zn1      0.71720    0.78280    0.21720   1.00
Zn1      0.71720    0.71720    0.28280   1.00
Zn1      0.78280    0.78280    0.28280   1.00
O2       0.77350    0.72650    0.16180   1.00
O2       0.77350    0.66180    0.22650   1.00
O2       0.83820    0.72650    0.22650   1.00
O2       0.72650    0.77350    0.16180   1.00
O2       0.66180    0.77350    0.22650   1.00
O2       0.72650    0.83820    0.22650   1.00
O2       0.72650    0.66180    0.27350   1.00
O2       0.66180    0.72650    0.27350   1.00
O2       0.72650    0.72650    0.33820   1.00
O2       0.83820    0.77350    0.27350   1.00
O2       0.77350    0.83820    0.27350   1.00
O2       0.77350    0.77350    0.33820   1.00
C1       0.75000    0.75000    0.14480   1.00
C1       0.75000    0.64480    0.25000   1.00
C1       0.85520    0.75000    0.25000   1.00
C1       0.64480    0.75000    0.25000   1.00
C1       0.75000    0.85520    0.25000   1.00
C1       0.75000    0.75000    0.35520   1.00
O1       0.75000    0.25000    0.75000   1.00
Zn1      0.78280    0.21720    0.71720   1.00
Zn1      0.71720    0.28280    0.71720   1.00
Zn1      0.71720    0.21720    0.78280   1.00
Zn1      0.78280    0.28280    0.78280   1.00
O2       0.77350    0.22650    0.66180   1.00
O2       0.77350    0.16180    0.72650   1.00
O2       0.83820    0.22650    0.72650   1.00
O2       0.72650    0.27350    0.66180   1.00
O2       0.66180    0.27350    0.72650   1.00
O2       0.72650    0.33820    0.72650   1.00
O2       0.72650    0.16180    0.77350   1.00
O2       0.66180    0.22650    0.77350   1.00
O2       0.72650    0.22650    0.83820   1.00
O2       0.83820    0.27350    0.77350   1.00
O2       0.77350    0.33820    0.77350   1.00
O2       0.77350    0.27350    0.83820   1.00
C1       0.75000    0.25000    0.64480   1.00
C1       0.75000    0.14480    0.75000   1.00
C1       0.85520    0.25000    0.75000   1.00
C1       0.64480    0.25000    0.75000   1.00
C1       0.75000    0.35520    0.75000   1.00
C1       0.75000    0.25000    0.85520   1.00
O1       0.25000    0.75000    0.75000   1.00
Zn1      0.28280    0.71720    0.71720   1.00
Zn1      0.21720    0.78280    0.71720   1.00
Zn1      0.21720    0.71720    0.78280   1.00
Zn1      0.28280    0.78280    0.78280   1.00
O2       0.27350    0.72650    0.66180   1.00
O2       0.27350    0.66180    0.72650   1.00
O2       0.33820    0.72650    0.72650   1.00
O2       0.22650    0.77350    0.66180   1.00
O2       0.16180    0.77350    0.72650   1.00
O2       0.22650    0.83820    0.72650   1.00
O2       0.22650    0.66180    0.77350   1.00
O2       0.16180    0.72650    0.77350   1.00
O2       0.22650    0.72650    0.83820   1.00
O2       0.33820    0.77350    0.77350   1.00
O2       0.27350    0.83820    0.77350   1.00
O2       0.27350    0.77350    0.83820   1.00
C1       0.25000    0.75000    0.64480   1.00
C1       0.25000    0.64480    0.75000   1.00
C1       0.35520    0.75000    0.75000   1.00
C1       0.14480    0.75000    0.75000   1.00
C1       0.25000    0.85520    0.75000   1.00
C1       0.25000    0.75000    0.85520   1.00
O1       0.91500    0.91500    0.91500   1.00
Zn1      0.88220    0.94780    0.94780   1.00
Zn1      0.94780    0.88220    0.94780   1.00
Zn1      0.94780    0.94780    0.88220   1.00
Zn1      0.88220    0.88220    0.88220   1.00
O2       0.89150    0.93850    1.00320   1.00
O2       0.89150    1.00320    0.93850   1.00
O2       0.82680    0.93850    0.93850   1.00
O2       0.93850    0.89150    1.00320   1.00
O2       1.00320    0.89150    0.93850   1.00
O2       0.93850    0.82680    0.93850   1.00
O2       0.93850    1.00320    0.89150   1.00
O2       1.00320    0.93850    0.89150   1.00
O2       0.93850    0.93850    0.82680   1.00
O2       0.82680    0.89150    0.89150   1.00
O2       0.89150    0.82680    0.89150   1.00
O2       0.89150    0.89150    0.82680   1.00
C1       0.91500    0.91500    1.02020   1.00
C1       0.91500    1.02020    0.91500   1.00
C1       0.80980    0.91500    0.91500   1.00
C1       1.02020    0.91500    0.91500   1.00
C1       0.91500    0.80980    0.91500   1.00
C1       0.91500    0.91500    0.80980   1.00
O1       0.41500    0.41500    0.91500   1.00
Zn1      0.38220    0.44780    0.94780   1.00
Zn1      0.44780    0.38220    0.94780   1.00
Zn1      0.44780    0.44780    0.88220   1.00
Zn1      0.38220    0.38220    0.88220   1.00
O2       0.39150    0.43850    1.00320   1.00
O2       0.39150    0.50320    0.93850   1.00
O2       0.32680    0.43850    0.93850   1.00
O2       0.43850    0.39150    1.00320   1.00
O2       0.50320    0.39150    0.93850   1.00
O2       0.43850    0.32680    0.93850   1.00
O2       0.43850    0.50320    0.89150   1.00
O2       0.50320    0.43850    0.89150   1.00
O2       0.43850    0.43850    0.82680   1.00
O2       0.32680    0.39150    0.89150   1.00
O2       0.39150    0.32680    0.89150   1.00
O2       0.39150    0.39150    0.82680   1.00
C1       0.41500    0.41500    1.02020   1.00
C1       0.41500    0.52020    0.91500   1.00
C1       0.30980    0.41500    0.91500   1.00
C1       0.52020    0.41500    0.91500   1.00
C1       0.41500    0.30980    0.91500   1.00
C1       0.41500    0.41500    0.80980   1.00
O1       0.41500    0.91500    0.41500   1.00
Zn1      0.38220    0.94780    0.44780   1.00
Zn1      0.44780    0.88220    0.44780   1.00
Zn1      0.44780    0.94780    0.38220   1.00
Zn1      0.38220    0.88220    0.38220   1.00
O2       0.39150    0.93850    0.50320   1.00
O2       0.39150    1.00320    0.43850   1.00
O2       0.32680    0.93850    0.43850   1.00
O2       0.43850    0.89150    0.50320   1.00
O2       0.50320    0.89150    0.43850   1.00
O2       0.43850    0.82680    0.43850   1.00
O2       0.43850    1.00320    0.39150   1.00
O2       0.50320    0.93850    0.39150   1.00
O2       0.43850    0.93850    0.32680   1.00
O2       0.32680    0.89150    0.39150   1.00
O2       0.39150    0.82680    0.39150   1.00
O2       0.39150    0.89150    0.32680   1.00
C1       0.41500    0.91500    0.52020   1.00
C1       0.41500    1.02020    0.41500   1.00
C1       0.30980    0.91500    0.41500   1.00
C1       0.52020    0.91500    0.41500   1.00
C1       0.41500    0.80980    0.41500   1.00
C1       0.41500    0.91500    0.30980   1.00
O1       0.91500    0.41500    0.41500   1.00
Zn1      0.88220    0.44780    0.44780   1.00
Zn1      0.94780    0.38220    0.44780   1.00
Zn1      0.94780    0.44780    0.38220   1.00
Zn1      0.88220    0.38220    0.38220   1.00
O2       0.89150    0.43850    0.50320   1.00
O2       0.89150    0.50320    0.43850   1.00
O2       0.82680    0.43850    0.43850   1.00
O2       0.93850    0.39150    0.50320   1.00
O2       1.00320    0.39150    0.43850   1.00
O2       0.93850    0.32680    0.43850   1.00
O2       0.93850    0.50320    0.39150   1.00
O2       1.00320    0.43850    0.39150   1.00
O2       0.93850    0.43850    0.32680   1.00
O2       0.82680    0.39150    0.39150   1.00
O2       0.89150    0.32680    0.39150   1.00
O2       0.89150    0.39150    0.32680   1.00
C1       0.91500    0.41500    0.52020   1.00
C1       0.91500    0.52020    0.41500   1.00
C1       0.80980    0.41500    0.41500   1.00
C1       1.02020    0.41500    0.41500   1.00
C1       0.91500    0.30980    0.41500   1.00
C1       0.91500    0.41500    0.30980   1.00
O1       0.41500    0.41500    0.41500   1.00
Zn1      0.44780    0.38220    0.38220   1.00
Zn1      0.38220    0.44780    0.38220   1.00
Zn1      0.38220    0.38220    0.44780   1.00
Zn1      0.44780    0.44780    0.44780   1.00
O2       0.43850    0.39150    0.32680   1.00
O2       0.43850    0.32680    0.39150   1.00
O2       0.50320    0.39150    0.39150   1.00
O2       0.39150    0.43850    0.32680   1.00
O2       0.32680    0.43850    0.39150   1.00
O2       0.39150    0.50320    0.39150   1.00
O2       0.39150    0.32680    0.43850   1.00
O2       0.32680    0.39150    0.43850   1.00
O2       0.39150    0.39150    0.50320   1.00
O2       0.50320    0.43850    0.43850   1.00
O2       0.43850    0.50320    0.43850   1.00
O2       0.43850    0.43850    0.50320   1.00
C1       0.41500    0.41500    0.30980   1.00
C1       0.41500    0.30980    0.41500   1.00
C1       0.52020    0.41500    0.41500   1.00
C1       0.30980    0.41500    0.41500   1.00
C1       0.41500    0.52020    0.41500   1.00
C1       0.41500    0.41500    0.52020   1.00
O1       0.91500    0.91500    0.41500   1.00
Zn1      0.94780    0.88220    0.38220   1.00
Zn1      0.88220    0.94780    0.38220   1.00
Zn1      0.88220    0.88220    0.44780   1.00
Zn1      0.94780    0.94780    0.44780   1.00
O2       0.93850    0.89150    0.32680   1.00
O2       0.93850    0.82680    0.39150   1.00
O2       1.00320    0.89150    0.39150   1.00
O2       0.89150    0.93850    0.32680   1.00
O2       0.82680    0.93850    0.39150   1.00
O2       0.89150    1.00320    0.39150   1.00
O2       0.89150    0.82680    0.43850   1.00
O2       0.82680    0.89150    0.43850   1.00
O2       0.89150    0.89150    0.50320   1.00
O2       1.00320    0.93850    0.43850   1.00
O2       0.93850    1.00320    0.43850   1.00
O2       0.93850    0.93850    0.50320   1.00
C1       0.91500    0.91500    0.30980   1.00
C1       0.91500    0.80980    0.41500   1.00
C1       1.02020    0.91500    0.41500   1.00
C1       0.80980    0.91500    0.41500   1.00
C1       0.91500    1.02020    0.41500   1.00
C1       0.91500    0.91500    0.52020   1.00
O1       0.91500    0.41500    0.91500   1.00
Zn1      0.94780    0.38220    0.88220   1.00
Zn1      0.88220    0.44780    0.88220   1.00
Zn1      0.88220    0.38220    0.94780   1.00
Zn1      0.94780    0.44780    0.94780   1.00
O2       0.93850    0.39150    0.82680   1.00
O2       0.93850    0.32680    0.89150   1.00
O2       1.00320    0.39150    0.89150   1.00
O2       0.89150    0.43850    0.82680   1.00
O2       0.82680    0.43850    0.89150   1.00
O2       0.89150    0.50320    0.89150   1.00
O2       0.89150    0.32680    0.93850   1.00
O2       0.82680    0.39150    0.93850   1.00
O2       0.89150    0.39150    1.00320   1.00
O2       1.00320    0.43850    0.93850   1.00
O2       0.93850    0.50320    0.93850   1.00
O2       0.93850    0.43850    1.00320   1.00
C1       0.91500    0.41500    0.80980   1.00
C1       0.91500    0.30980    0.91500   1.00
C1       1.02020    0.41500    0.91500   1.00
C1       0.80980    0.41500    0.91500   1.00
C1       0.91500    0.52020    0.91500   1.00
C1       0.91500    0.41500    1.02020   1.00
O1       0.41500    0.91500    0.91500   1.00
Zn1      0.44780    0.88220    0.88220   1.00
Zn1      0.38220    0.94780    0.88220   1.00
Zn1      0.38220    0.88220    0.94780   1.00
Zn1      0.44780    0.94780    0.94780   1.00
O2       0.43850    0.89150    0.82680   1.00
O2       0.43850    0.82680    0.89150   1.00
O2       0.50320    0.89150    0.89150   1.00
O2       0.39150    0.93850    0.82680   1.00
O2       0.32680    0.93850    0.89150   1.00
O2       0.39150    1.00320    0.89150   1.00
O2       0.39150    0.82680    0.93850   1.00
O2       0.32680    0.89150    0.93850   1.00
O2       0.39150    0.89150    1.00320   1.00
O2       0.50320    0.93850    0.93850   1.00
O2       0.43850    1.00320    0.93850   1.00
O2       0.43850    0.93850    1.00320   1.00
C1       0.41500    0.91500    0.80980   1.00
C1       0.41500    0.80980    0.91500   1.00
C1       0.52020    0.91500    0.91500   1.00
C1       0.30980    0.91500    0.91500   1.00
C1       0.41500    1.02020    0.91500   1.00
C1       0.41500    0.91500    1.02020   1.00
C4       0.75116    0.75281    1.02084   1.00
C4       0.75145    0.75215    0.97912   1.00
C3       0.77943    0.77276    1.04364   1.00
C3       0.78194    0.76831    0.95616   1.00
C3       0.72141    0.73198    1.04123   1.00
C3       0.71962    0.73451    0.95886   1.00
C2       0.74966    0.75115    1.10512   1.00
C2       0.75034    0.74885    0.89488   1.00
C3       0.77886    0.77178    1.08462   1.00
C3       0.78124    0.76704    0.91519   1.00
C3       0.72091    0.73196    1.08258   1.00
C3       0.72029    0.73206    0.91762   1.00
H1       0.80119    0.78869    1.03115   1.00
H1       0.80566    0.78126    0.96852   1.00
C5       0.69225    0.71144    1.02020   1.00
C5       0.68745    0.71911    0.97980   1.00
H1       0.80023    0.78652    1.09955   1.00
H1       0.80392    0.77950    0.90010   1.00
H1       0.69877    0.71779    1.09680   1.00
H1       0.69853    0.71716    0.90368   1.00
O3       0.66766    0.68623    1.03961   1.00
O3       0.65321    0.70906    0.96099   1.00
Si1      0.67862    0.63994    1.04247   1.00
Si1      0.62071    0.74288    0.95279   1.00
C6       0.64131    0.62657    1.07538   1.00
C6       0.67075    0.61936    0.99598   1.00
C6       0.72528    0.63125    1.06253   1.00
C6       0.63169    0.79126    0.96693   1.00
C6       0.61448    0.74095    0.90198   1.00
C6       0.57686    0.72748    0.97477   1.00
C6       0.63630    0.65362    1.11194   1.00
H2       0.61504    0.63105    1.05791   1.00
C6       0.63823    0.58379    1.09147   1.00
H2       0.64915    0.63919    0.98358   1.00
C6       0.70547    0.61876    0.96634   1.00
C6       0.65212    0.57774    0.99336   1.00
H2       0.72510    0.65004    1.08831   1.00
C6       0.73401    0.58901    1.07772   1.00
C6       0.76270    0.64248    1.03849   1.00
C6       0.64196    0.79903    1.01071   1.00
C6       0.66134    0.81579    0.94225   1.00
H2       0.60394    0.80614    0.96212   1.00
H2       0.64183    0.75253    0.89051   1.00
C6       0.61041    0.69922    0.88378   1.00
C6       0.58114    0.76634    0.88393   1.00
H2       0.56446    0.70700    0.95375   1.00
C6       0.58089    0.70373    1.01336   1.00
C6       0.54448    0.75881    0.98244   1.00
H2       0.63186    0.68403    1.10346   1.00
H2       0.66191    0.65230    1.13090   1.00
H2       0.61082    0.64514    1.12917   1.00
H2       0.60762    0.57604    1.09608   1.00
H2       0.65063    0.56224    1.07178   1.00
H2       0.65275    0.58039    1.11964   1.00
H2       0.69494    0.61323    0.93672   1.00
H2       0.72079    0.64655    0.96532   1.00
H2       0.72637    0.59582    0.97352   1.00
H2       0.62420    0.57651    1.00862   1.00
H2       0.64605    0.56963    0.96308   1.00
H2       0.67161    0.55563    1.00550   1.00
H2       0.72830    0.56726    1.05514   1.00
H2       0.76436    0.58565    1.08708   1.00
H2       0.71663    0.58213    1.10332   1.00
H2       0.77192    0.61901    1.01902   1.00
H2       0.75899    0.66832    1.02068   1.00
H2       0.78705    0.64835    1.05828   1.00
H2       0.67255    0.79297    1.01688   1.00
H2       0.63687    0.82965    1.01809   1.00
H2       0.62420    0.78165    1.03048   1.00
H2       0.66083    0.84641    0.95125   1.00
H2       0.69122    0.80565    0.94574   1.00
H2       0.65427    0.81551    0.91122   1.00
H2       0.61339    0.70058    0.85202   1.00
H2       0.63324    0.67963    0.89435   1.00
H2       0.58218    0.68604    0.89035   1.00
H2       0.58240    0.79646    0.89416   1.00
H2       0.58379    0.76721    0.85212   1.00
H2       0.55239    0.75444    0.89085   1.00
H2       0.59447    0.72073    1.03656   1.00
H2       0.55261    0.69337    1.02381   1.00
H2       0.59883    0.67811    1.00834   1.00
H2       0.51690    0.74487    0.99044   1.00
H2       0.55264    0.77842    1.00622   1.00
H2       0.53870    0.77638    0.95657   1.00
C4       0.75281    1.02084    0.75116   1.00
C4       0.75215    0.97912    0.75145   1.00
C3       0.77276    1.04364    0.77943   1.00
C3       0.76831    0.95616    0.78194   1.00
C3       0.73198    1.04123    0.72141   1.00
C3       0.73451    0.95886    0.71962   1.00
C2       0.75115    1.10512    0.74966   1.00
C2       0.74885    0.89488    0.75034   1.00
C3       0.77178    1.08462    0.77886   1.00
C3       0.76704    0.91519    0.78124   1.00
C3       0.73196    1.08258    0.72091   1.00
C3       0.73206    0.91762    0.72029   1.00
H1       0.78869    1.03115    0.80119   1.00
H1       0.78126    0.96852    0.80566   1.00
C5       0.71144    1.02020    0.69225   1.00
C5       0.71911    0.97980    0.68745   1.00
H1       0.78652    1.09955    0.80023   1.00
H1       0.77950    0.90010    0.80392   1.00
H1       0.71779    1.09680    0.69877   1.00
H1       0.71716    0.90368    0.69853   1.00
O3       0.68623    1.03961    0.66766   1.00
O3       0.70906    0.96099    0.65321   1.00
Si1      0.63994    1.04247    0.67862   1.00
Si1      0.74288    0.95279    0.62071   1.00
C6       0.62657    1.07538    0.64131   1.00
C6       0.61936    0.99598    0.67075   1.00
C6       0.63125    1.06253    0.72528   1.00
C6       0.79126    0.96693    0.63169   1.00
C6       0.74095    0.90198    0.61448   1.00
C6       0.72748    0.97477    0.57686   1.00
C6       0.65362    1.11194    0.63630   1.00
H2       0.63105    1.05791    0.61504   1.00
C6       0.58379    1.09147    0.63823   1.00
H2       0.63919    0.98358    0.64915   1.00
C6       0.61876    0.96634    0.70547   1.00
C6       0.57774    0.99336    0.65212   1.00
H2       0.65004    1.08831    0.72510   1.00
C6       0.58901    1.07772    0.73401   1.00
C6       0.64248    1.03849    0.76270   1.00
C6       0.79903    1.01071    0.64196   1.00
C6       0.81579    0.94225    0.66134   1.00
H2       0.80614    0.96212    0.60394   1.00
H2       0.75253    0.89051    0.64183   1.00
C6       0.69922    0.88378    0.61041   1.00
C6       0.76634    0.88393    0.58114   1.00
H2       0.70700    0.95375    0.56446   1.00
C6       0.70373    1.01336    0.58089   1.00
C6       0.75881    0.98244    0.54448   1.00
H2       0.68403    1.10346    0.63186   1.00
H2       0.65230    1.13090    0.66191   1.00
H2       0.64514    1.12917    0.61082   1.00
H2       0.57604    1.09608    0.60762   1.00
H2       0.56224    1.07178    0.65063   1.00
H2       0.58039    1.11964    0.65275   1.00
H2       0.61323    0.93672    0.69494   1.00
H2       0.64655    0.96532    0.72079   1.00
H2       0.59582    0.97352    0.72637   1.00
H2       0.57651    1.00862    0.62420   1.00
H2       0.56963    0.96308    0.64605   1.00
H2       0.55563    1.00550    0.67161   1.00
H2       0.56726    1.05514    0.72830   1.00
H2       0.58565    1.08708    0.76436   1.00
H2       0.58213    1.10332    0.71663   1.00
H2       0.61901    1.01902    0.77192   1.00
H2       0.66832    1.02068    0.75899   1.00
H2       0.64835    1.05828    0.78705   1.00
H2       0.79297    1.01688    0.67255   1.00
H2       0.82965    1.01809    0.63687   1.00
H2       0.78165    1.03048    0.62420   1.00
H2       0.84641    0.95125    0.66083   1.00
H2       0.80565    0.94574    0.69122   1.00
H2       0.81551    0.91122    0.65427   1.00
H2       0.70058    0.85202    0.61339   1.00
H2       0.67963    0.89435    0.63324   1.00
H2       0.68604    0.89035    0.58218   1.00
H2       0.79646    0.89416    0.58240   1.00
H2       0.76721    0.85212    0.58379   1.00
H2       0.75444    0.89085    0.55239   1.00
H2       0.72073    1.03656    0.59447   1.00
H2       0.69337    1.02381    0.55261   1.00
H2       0.67811    1.00834    0.59883   1.00
H2       0.74487    0.99044    0.51690   1.00
H2       0.77842    1.00622    0.55264   1.00
H2       0.77638    0.95657    0.53870   1.00
C4       0.47916    0.75116    0.74719   1.00
C4       0.52088    0.75145    0.74785   1.00
C3       0.45636    0.77943    0.72724   1.00
C3       0.54384    0.78194    0.73169   1.00
C3       0.45877    0.72141    0.76802   1.00
C3       0.54114    0.71962    0.76549   1.00
C2       0.39488    0.74966    0.74885   1.00
C2       0.60512    0.75034    0.75115   1.00
C3       0.41538    0.77886    0.72822   1.00
C3       0.58481    0.78124    0.73296   1.00
C3       0.41742    0.72091    0.76804   1.00
C3       0.58238    0.72029    0.76794   1.00
H1       0.46885    0.80119    0.71131   1.00
H1       0.53148    0.80566    0.71874   1.00
C5       0.47980    0.69225    0.78856   1.00
C5       0.52020    0.68745    0.78089   1.00
H1       0.40045    0.80023    0.71348   1.00
H1       0.59990    0.80392    0.72050   1.00
H1       0.40320    0.69877    0.78221   1.00
H1       0.59632    0.69853    0.78284   1.00
O3       0.46039    0.66766    0.81377   1.00
O3       0.53901    0.65321    0.79094   1.00
Si1      0.45753    0.67862    0.86006   1.00
Si1      0.54721    0.62071    0.75712   1.00
C6       0.42462    0.64131    0.87343   1.00
C6       0.50402    0.67075    0.88064   1.00
C6       0.43747    0.72528    0.86875   1.00
C6       0.53307    0.63169    0.70874   1.00
C6       0.59802    0.61448    0.75905   1.00
C6       0.52523    0.57686    0.77252   1.00
C6       0.38806    0.63630    0.84638   1.00
H2       0.44209    0.61504    0.86895   1.00
C6       0.40853    0.63823    0.91621   1.00
H2       0.51642    0.64915    0.86081   1.00
C6       0.53366    0.70547    0.88124   1.00
C6       0.50664    0.65212    0.92226   1.00
H2       0.41169    0.72510    0.84996   1.00
C6       0.42228    0.73401    0.91099   1.00
C6       0.46151    0.76270    0.85752   1.00
C6       0.48929    0.64196    0.70097   1.00
C6       0.55775    0.66134    0.68421   1.00
H2       0.53788    0.60394    0.69386   1.00
H2       0.60949    0.64183    0.74747   1.00
C6       0.61622    0.61041    0.80078   1.00
C6       0.61607    0.58114    0.73366   1.00
H2       0.54625    0.56446    0.79300   1.00
C6       0.48664    0.58089    0.79627   1.00
C6       0.51756    0.54448    0.74119   1.00
H2       0.39654    0.63186    0.81597   1.00
H2       0.36910    0.66191    0.84770   1.00
H2       0.37083    0.61082    0.85486   1.00
H2       0.40392    0.60762    0.92396   1.00
H2       0.42822    0.65063    0.93776   1.00
H2       0.38036    0.65275    0.91961   1.00
H2       0.56328    0.69494    0.88677   1.00
H2       0.53468    0.72079    0.85345   1.00
H2       0.52648    0.72637    0.90418   1.00
H2       0.49138    0.62420    0.92349   1.00
H2       0.53692    0.64605    0.93037   1.00
H2       0.49450    0.67161    0.94437   1.00
H2       0.44486    0.72830    0.93274   1.00
H2       0.41292    0.76436    0.91435   1.00
H2       0.39668    0.71663    0.91787   1.00
H2       0.48098    0.77192    0.88099   1.00
H2       0.47932    0.75899    0.83168   1.00
H2       0.44172    0.78705    0.85165   1.00
H2       0.48312    0.67255    0.70703   1.00
H2       0.48191    0.63687    0.67035   1.00
H2       0.46952    0.62420    0.71835   1.00
H2       0.54875    0.66083    0.65359   1.00
H2       0.55426    0.69122    0.69435   1.00
H2       0.58878    0.65427    0.68449   1.00
H2       0.64798    0.61339    0.79942   1.00
H2       0.60565    0.63324    0.82037   1.00
H2       0.60965    0.58218    0.81396   1.00
H2       0.60584    0.58240    0.70354   1.00
H2       0.64788    0.58379    0.73279   1.00
H2       0.60915    0.55239    0.74556   1.00
H2       0.46344    0.59447    0.77927   1.00
H2       0.47619    0.55261    0.80663   1.00
H2       0.49166    0.59883    0.82189   1.00
H2       0.50956    0.51690    0.75513   1.00
H2       0.49378    0.55264    0.72158   1.00
H2       0.54343    0.53870    0.72362   1.00
C4       1.02084    0.75116    0.75281   1.00
C4       0.97912    0.75145    0.75215   1.00
C3       1.04364    0.77943    0.77276   1.00
C3       0.95616    0.78194    0.76831   1.00
C3       1.04123    0.72141    0.73198   1.00
C3       0.95886    0.71962    0.73451   1.00
C2       1.10512    0.74966    0.75115   1.00
C2       0.89488    0.75034    0.74885   1.00
C3       1.08462    0.77886    0.77178   1.00
C3       0.91519    0.78124    0.76704   1.00
C3       1.08258    0.72091    0.73196   1.00
C3       0.91762    0.72029    0.73206   1.00
H1       1.03115    0.80119    0.78869   1.00
H1       0.96852    0.80566    0.78126   1.00
C5       1.02020    0.69225    0.71144   1.00
C5       0.97980    0.68745    0.71911   1.00
H1       1.09955    0.80023    0.78652   1.00
H1       0.90010    0.80392    0.77950   1.00
H1       1.09680    0.69877    0.71779   1.00
H1       0.90368    0.69853    0.71716   1.00
O3       1.03961    0.66766    0.68623   1.00
O3       0.96099    0.65321    0.70906   1.00
Si1      1.04247    0.67862    0.63994   1.00
Si1      0.95279    0.62071    0.74288   1.00
C6       1.07538    0.64131    0.62657   1.00
C6       0.99598    0.67075    0.61936   1.00
C6       1.06253    0.72528    0.63125   1.00
C6       0.96693    0.63169    0.79126   1.00
C6       0.90198    0.61448    0.74095   1.00
C6       0.97477    0.57686    0.72748   1.00
C6       1.11194    0.63630    0.65362   1.00
H2       1.05791    0.61504    0.63105   1.00
C6       1.09147    0.63823    0.58379   1.00
H2       0.98358    0.64915    0.63919   1.00
C6       0.96634    0.70547    0.61876   1.00
C6       0.99336    0.65212    0.57774   1.00
H2       1.08831    0.72510    0.65004   1.00
C6       1.07772    0.73401    0.58901   1.00
C6       1.03849    0.76270    0.64248   1.00
C6       1.01071    0.64196    0.79903   1.00
C6       0.94225    0.66134    0.81579   1.00
H2       0.96212    0.60394    0.80614   1.00
H2       0.89051    0.64183    0.75253   1.00
C6       0.88378    0.61041    0.69922   1.00
C6       0.88393    0.58114    0.76634   1.00
H2       0.95375    0.56446    0.70700   1.00
C6       1.01336    0.58089    0.70373   1.00
C6       0.98244    0.54448    0.75881   1.00
H2       1.10346    0.63186    0.68403   1.00
H2       1.13090    0.66191    0.65230   1.00
H2       1.12917    0.61082    0.64514   1.00
H2       1.09608    0.60762    0.57604   1.00
H2       1.07178    0.65063    0.56224   1.00
H2       1.11964    0.65275    0.58039   1.00
H2       0.93672    0.69494    0.61323   1.00
H2       0.96532    0.72079    0.64655   1.00
H2       0.97352    0.72637    0.59582   1.00
H2       1.00862    0.62420    0.57651   1.00
H2       0.96308    0.64605    0.56963   1.00
H2       1.00550    0.67161    0.55563   1.00
H2       1.05514    0.72830    0.56726   1.00
H2       1.08708    0.76436    0.58565   1.00
H2       1.10332    0.71663    0.58213   1.00
H2       1.01902    0.77192    0.61901   1.00
H2       1.02068    0.75899    0.66832   1.00
H2       1.05828    0.78705    0.64835   1.00
H2       1.01688    0.67255    0.79297   1.00
H2       1.01809    0.63687    0.82965   1.00
H2       1.03048    0.62420    0.78165   1.00
H2       0.95125    0.66083    0.84641   1.00
H2       0.94574    0.69122    0.80565   1.00
H2       0.91122    0.65427    0.81551   1.00
H2       0.85202    0.61339    0.70058   1.00
H2       0.89435    0.63324    0.67963   1.00
H2       0.89035    0.58218    0.68604   1.00
H2       0.89416    0.58240    0.79646   1.00
H2       0.85212    0.58379    0.76721   1.00
H2       0.89085    0.55239    0.75444   1.00
H2       1.03656    0.59447    0.72073   1.00
H2       1.02381    0.55261    0.69337   1.00
H2       1.00834    0.59883    0.67811   1.00
H2       0.99044    0.51690    0.74487   1.00
H2       1.00622    0.55264    0.77842   1.00
H2       0.95657    0.53870    0.77638   1.00
C4       0.74719    0.47916    0.75116   1.00
C4       0.74785    0.52088    0.75145   1.00
C3       0.72724    0.45636    0.77943   1.00
C3       0.73169    0.54384    0.78194   1.00
C3       0.76802    0.45877    0.72141   1.00
C3       0.76549    0.54114    0.71962   1.00
C2       0.74885    0.39488    0.74966   1.00
C2       0.75115    0.60512    0.75034   1.00
C3       0.72822    0.41538    0.77886   1.00
C3       0.73296    0.58481    0.78124   1.00
C3       0.76804    0.41742    0.72091   1.00
C3       0.76794    0.58238    0.72029   1.00
H1       0.71131    0.46885    0.80119   1.00
H1       0.71874    0.53148    0.80566   1.00
C5       0.78856    0.47980    0.69225   1.00
C5       0.78089    0.52020    0.68745   1.00
H1       0.71348    0.40045    0.80023   1.00
H1       0.72050    0.59990    0.80392   1.00
H1       0.78221    0.40320    0.69877   1.00
H1       0.78284    0.59632    0.69853   1.00
O3       0.81377    0.46039    0.66766   1.00
O3       0.79094    0.53901    0.65321   1.00
Si1      0.86006    0.45753    0.67862   1.00
Si1      0.75712    0.54721    0.62071   1.00
C6       0.87343    0.42462    0.64131   1.00
C6       0.88064    0.50402    0.67075   1.00
C6       0.86875    0.43747    0.72528   1.00
C6       0.70874    0.53307    0.63169   1.00
C6       0.75905    0.59802    0.61448   1.00
C6       0.77252    0.52523    0.57686   1.00
C6       0.84638    0.38806    0.63630   1.00
H2       0.86895    0.44209    0.61504   1.00
C6       0.91621    0.40853    0.63823   1.00
H2       0.86081    0.51642    0.64915   1.00
C6       0.88124    0.53366    0.70547   1.00
C6       0.92226    0.50664    0.65212   1.00
H2       0.84996    0.41169    0.72510   1.00
C6       0.91099    0.42228    0.73401   1.00
C6       0.85752    0.46151    0.76270   1.00
C6       0.70097    0.48929    0.64196   1.00
C6       0.68421    0.55775    0.66134   1.00
H2       0.69386    0.53788    0.60394   1.00
H2       0.74747    0.60949    0.64183   1.00
C6       0.80078    0.61622    0.61041   1.00
C6       0.73366    0.61607    0.58114   1.00
H2       0.79300    0.54625    0.56446   1.00
C6       0.79627    0.48664    0.58089   1.00
C6       0.74119    0.51756    0.54448   1.00
H2       0.81597    0.39654    0.63186   1.00
H2       0.84770    0.36910    0.66191   1.00
H2       0.85486    0.37083    0.61082   1.00
H2       0.92396    0.40392    0.60762   1.00
H2       0.93776    0.42822    0.65063   1.00
H2       0.91961    0.38036    0.65275   1.00
H2       0.88677    0.56328    0.69494   1.00
H2       0.85345    0.53468    0.72079   1.00
H2       0.90418    0.52648    0.72637   1.00
H2       0.92349    0.49138    0.62420   1.00
H2       0.93037    0.53692    0.64605   1.00
H2       0.94437    0.49450    0.67161   1.00
H2       0.93274    0.44486    0.72830   1.00
H2       0.91435    0.41292    0.76436   1.00
H2       0.91787    0.39668    0.71663   1.00
H2       0.88099    0.48098    0.77192   1.00
H2       0.83168    0.47932    0.75899   1.00
H2       0.85165    0.44172    0.78705   1.00
H2       0.70703    0.48312    0.67255   1.00
H2       0.67035    0.48191    0.63687   1.00
H2       0.71835    0.46952    0.62420   1.00
H2       0.65359    0.54875    0.66083   1.00
H2       0.69435    0.55426    0.69122   1.00
H2       0.68449    0.58878    0.65427   1.00
H2       0.79942    0.64798    0.61339   1.00
H2       0.82037    0.60565    0.63324   1.00
H2       0.81396    0.60965    0.58218   1.00
H2       0.70354    0.60584    0.58240   1.00
H2       0.73279    0.64788    0.58379   1.00
H2       0.74556    0.60915    0.55239   1.00
H2       0.77927    0.46344    0.59447   1.00
H2       0.80663    0.47619    0.55261   1.00
H2       0.82189    0.49166    0.59883   1.00
H2       0.75513    0.50956    0.51690   1.00
H2       0.72158    0.49378    0.55264   1.00
H2       0.72362    0.54343    0.53870   1.00
C4       0.75116    0.74719    0.47916   1.00
C4       0.75145    0.74785    0.52088   1.00
C3       0.77943    0.72724    0.45636   1.00
C3       0.78194    0.73169    0.54384   1.00
C3       0.72141    0.76802    0.45877   1.00
C3       0.71962    0.76549    0.54114   1.00
C2       0.74966    0.74885    0.39488   1.00
C2       0.75034    0.75115    0.60512   1.00
C3       0.77886    0.72822    0.41538   1.00
C3       0.78124    0.73296    0.58481   1.00
C3       0.72091    0.76804    0.41742   1.00
C3       0.72029    0.76794    0.58238   1.00
H1       0.80119    0.71131    0.46885   1.00
H1       0.80566    0.71874    0.53148   1.00
C5       0.69225    0.78856    0.47980   1.00
C5       0.68745    0.78089    0.52020   1.00
H1       0.80023    0.71348    0.40045   1.00
H1       0.80392    0.72050    0.59990   1.00
H1       0.69877    0.78221    0.40320   1.00
H1       0.69853    0.78284    0.59632   1.00
O3       0.66766    0.81377    0.46039   1.00
O3       0.65321    0.79094    0.53901   1.00
Si1      0.67862    0.86006    0.45753   1.00
Si1      0.62071    0.75712    0.54721   1.00
C6       0.64131    0.87343    0.42462   1.00
C6       0.67075    0.88064    0.50402   1.00
C6       0.72528    0.86875    0.43747   1.00
C6       0.63169    0.70874    0.53307   1.00
C6       0.61448    0.75905    0.59802   1.00
C6       0.57686    0.77252    0.52523   1.00
C6       0.63630    0.84638    0.38806   1.00
H2       0.61504    0.86895    0.44209   1.00
C6       0.63823    0.91621    0.40853   1.00
H2       0.64915    0.86081    0.51642   1.00
C6       0.70547    0.88124    0.53366   1.00
C6       0.65212    0.92226    0.50664   1.00
H2       0.72510    0.84996    0.41169   1.00
C6       0.73401    0.91099    0.42228   1.00
C6       0.76270    0.85752    0.46151   1.00
C6       0.64196    0.70097    0.48929   1.00
C6       0.66134    0.68421    0.55775   1.00
H2       0.60394    0.69386    0.53788   1.00
H2       0.64183    0.74747    0.60949   1.00
C6       0.61041    0.80078    0.61622   1.00
C6       0.58114    0.73366    0.61607   1.00
H2       0.56446    0.79300    0.54625   1.00
C6       0.58089    0.79627    0.48664   1.00
C6       0.54448    0.74119    0.51756   1.00
H2       0.63186    0.81597    0.39654   1.00
H2       0.66191    0.84770    0.36910   1.00
H2       0.61082    0.85486    0.37083   1.00
H2       0.60762    0.92396    0.40392   1.00
H2       0.65063    0.93776    0.42822   1.00
H2       0.65275    0.91961    0.38036   1.00
H2       0.69494    0.88677    0.56328   1.00
H2       0.72079    0.85345    0.53468   1.00
H2       0.72637    0.90418    0.52648   1.00
H2       0.62420    0.92349    0.49138   1.00
H2       0.64605    0.93037    0.53692   1.00
H2       0.67161    0.94437    0.49450   1.00
H2       0.72830    0.93274    0.44486   1.00
H2       0.76436    0.91435    0.41292   1.00
H2       0.71663    0.91787    0.39668   1.00
H2       0.77192    0.88099    0.48098   1.00
H2       0.75899    0.83168    0.47932   1.00
H2       0.78705    0.85165    0.44172   1.00
H2       0.67255    0.70703    0.48312   1.00
H2       0.63687    0.67035    0.48191   1.00
H2       0.62420    0.71835    0.46952   1.00
H2       0.66083    0.65359    0.54875   1.00
H2       0.69122    0.69435    0.55426   1.00
H2       0.65427    0.68449    0.58878   1.00
H2       0.61339    0.79942    0.64798   1.00
H2       0.63324    0.82037    0.60565   1.00
H2       0.58218    0.81396    0.60965   1.00
H2       0.58240    0.70354    0.60584   1.00
H2       0.58379    0.73279    0.64788   1.00
H2       0.55239    0.74556    0.60915   1.00
H2       0.59447    0.77927    0.46344   1.00
H2       0.55261    0.80663    0.47619   1.00
H2       0.59883    0.82189    0.49166   1.00
H2       0.51690    0.75513    0.50956   1.00
H2       0.55264    0.72158    0.49378   1.00
H2       0.53870    0.72362    0.54343   1.00
C4       0.25116    0.25281    1.02084   1.00
C4       0.25145    0.25215    0.97912   1.00
C3       0.27943    0.27276    1.04364   1.00
C3       0.28194    0.26831    0.95616   1.00
C3       0.22141    0.23198    1.04123   1.00
C3       0.21962    0.23451    0.95886   1.00
C2       0.24966    0.25115    1.10512   1.00
C2       0.25034    0.24885    0.89488   1.00
C3       0.27886    0.27178    1.08462   1.00
C3       0.28124    0.26704    0.91519   1.00
C3       0.22091    0.23196    1.08258   1.00
C3       0.22029    0.23206    0.91762   1.00
H1       0.30119    0.28869    1.03115   1.00
H1       0.30566    0.28126    0.96852   1.00
C5       0.19225    0.21144    1.02020   1.00
C5       0.18745    0.21911    0.97980   1.00
H1       0.30023    0.28652    1.09955   1.00
H1       0.30392    0.27950    0.90010   1.00
H1       0.19877    0.21779    1.09680   1.00
H1       0.19853    0.21716    0.90368   1.00
O3       0.16766    0.18623    1.03961   1.00
O3       0.15321    0.20906    0.96099   1.00
Si1      0.17862    0.13994    1.04247   1.00
Si1      0.12071    0.24288    0.95279   1.00
C6       0.14131    0.12657    1.07538   1.00
C6       0.17075    0.11936    0.99598   1.00
C6       0.22528    0.13125    1.06253   1.00
C6       0.13169    0.29126    0.96693   1.00
C6       0.11448    0.24095    0.90198   1.00
C6       0.07686    0.22748    0.97477   1.00
C6       0.13630    0.15362    1.11194   1.00
H2       0.11504    0.13105    1.05791   1.00
C6       0.13823    0.08379    1.09147   1.00
H2       0.14915    0.13919    0.98358   1.00
C6       0.20547    0.11876    0.96634   1.00
C6       0.15212    0.07774    0.99336   1.00
H2       0.22510    0.15004    1.08831   1.00
C6       0.23401    0.08901    1.07772   1.00
C6       0.26270    0.14248    1.03849   1.00
C6       0.14196    0.29903    1.01071   1.00
C6       0.16134    0.31579    0.94225   1.00
H2       0.10394    0.30614    0.96212   1.00
H2       0.14183    0.25253    0.89051   1.00
C6       0.11041    0.19922    0.88378   1.00
C6       0.08114    0.26634    0.88393   1.00
H2       0.06446    0.20700    0.95375   1.00
C6       0.08089    0.20373    1.01336   1.00
C6       0.04448    0.25881    0.98244   1.00
H2       0.13186    0.18403    1.10346   1.00
H2       0.16191    0.15230    1.13090   1.00
H2       0.11082    0.14514    1.12917   1.00
H2       0.10762    0.07604    1.09608   1.00
H2       0.15063    0.06224    1.07178   1.00
H2       0.15275    0.08039    1.11964   1.00
H2       0.19494    0.11323    0.93672   1.00
H2       0.22079    0.14655    0.96532   1.00
H2       0.22637    0.09582    0.97352   1.00
H2       0.12420    0.07651    1.00862   1.00
H2       0.14605    0.06963    0.96308   1.00
H2       0.17161    0.05563    1.00550   1.00
H2       0.22830    0.06726    1.05514   1.00
H2       0.26436    0.08565    1.08708   1.00
H2       0.21663    0.08213    1.10332   1.00
H2       0.27192    0.11901    1.01902   1.00
H2       0.25899    0.16832    1.02068   1.00
H2       0.28705    0.14835    1.05828   1.00
H2       0.17255    0.29297    1.01688   1.00
H2       0.13687    0.32965    1.01809   1.00
H2       0.12420    0.28165    1.03048   1.00
H2       0.16083    0.34641    0.95125   1.00
H2       0.19122    0.30565    0.94574   1.00
H2       0.15427    0.31551    0.91122   1.00
H2       0.11339    0.20058    0.85202   1.00
H2       0.13324    0.17963    0.89435   1.00
H2       0.08218    0.18604    0.89035   1.00
H2       0.08240    0.29646    0.89416   1.00
H2       0.08379    0.26721    0.85212   1.00
H2       0.05239    0.25444    0.89085   1.00
H2       0.09447    0.22073    1.03656   1.00
H2       0.05261    0.19337    1.02381   1.00
H2       0.09883    0.17811    1.00834   1.00
H2       0.01690    0.24487    0.99044   1.00
H2       0.05264    0.27842    1.00622   1.00
H2       0.03870    0.27638    0.95657   1.00
C4       0.25281    0.52084    0.75116   1.00
C4       0.25215    0.47912    0.75145   1.00
C3       0.27276    0.54364    0.77943   1.00
C3       0.26831    0.45616    0.78194   1.00
C3       0.23198    0.54123    0.72141   1.00
C3       0.23451    0.45886    0.71962   1.00
C2       0.25115    0.60512    0.74966   1.00
C2       0.24885    0.39488    0.75034   1.00
C3       0.27178    0.58462    0.77886   1.00
C3       0.26704    0.41519    0.78124   1.00
C3       0.23196    0.58258    0.72091   1.00
C3       0.23206    0.41762    0.72029   1.00
H1       0.28869    0.53115    0.80119   1.00
H1       0.28126    0.46852    0.80566   1.00
C5       0.21144    0.52020    0.69225   1.00
C5       0.21911    0.47980    0.68745   1.00
H1       0.28652    0.59955    0.80023   1.00
H1       0.27950    0.40010    0.80392   1.00
H1       0.21779    0.59680    0.69877   1.00
H1       0.21716    0.40368    0.69853   1.00
O3       0.18623    0.53961    0.66766   1.00
O3       0.20906    0.46099    0.65321   1.00
Si1      0.13994    0.54247    0.67862   1.00
Si1      0.24288    0.45279    0.62071   1.00
C6       0.12657    0.57538    0.64131   1.00
C6       0.11936    0.49598    0.67075   1.00
C6       0.13125    0.56253    0.72528   1.00
C6       0.29126    0.46693    0.63169   1.00
C6       0.24095    0.40198    0.61448   1.00
C6       0.22748    0.47477    0.57686   1.00
C6       0.15362    0.61194    0.63630   1.00
H2       0.13105    0.55791    0.61504   1.00
C6       0.08379    0.59147    0.63823   1.00
H2       0.13919    0.48358    0.64915   1.00
C6       0.11876    0.46634    0.70547   1.00
C6       0.07774    0.49336    0.65212   1.00
H2       0.15004    0.58831    0.72510   1.00
C6       0.08901    0.57772    0.73401   1.00
C6       0.14248    0.53849    0.76270   1.00
C6       0.29903    0.51071    0.64196   1.00
C6       0.31579    0.44225    0.66134   1.00
H2       0.30614    0.46212    0.60394   1.00
H2       0.25253    0.39051    0.64183   1.00
C6       0.19922    0.38378    0.61041   1.00
C6       0.26634    0.38393    0.58114   1.00
H2       0.20700    0.45375    0.56446   1.00
C6       0.20373    0.51336    0.58089   1.00
C6       0.25881    0.48244    0.54448   1.00
H2       0.18403    0.60346    0.63186   1.00
H2       0.15230    0.63090    0.66191   1.00
H2       0.14514    0.62917    0.61082   1.00
H2       0.07604    0.59608    0.60762   1.00
H2       0.06224    0.57178    0.65063   1.00
H2       0.08039    0.61964    0.65275   1.00
H2       0.11323    0.43672    0.69494   1.00
H2       0.14655    0.46532    0.72079   1.00
H2       0.09582    0.47352    0.72637   1.00
H2       0.07651    0.50862    0.62420   1.00
H2       0.06963    0.46308    0.64605   1.00
H2       0.05563    0.50550    0.67161   1.00
H2       0.06726    0.55514    0.72830   1.00
H2       0.08565    0.58708    0.76436   1.00
H2       0.08213    0.60332    0.71663   1.00
H2       0.11901    0.51902    0.77192   1.00
H2       0.16832    0.52068    0.75899   1.00
H2       0.14835    0.55828    0.78705   1.00
H2       0.29297    0.51688    0.67255   1.00
H2       0.32965    0.51809    0.63687   1.00
H2       0.28165    0.53048    0.62420   1.00
H2       0.34641    0.45125    0.66083   1.00
H2       0.30565    0.44574    0.69122   1.00
H2       0.31551    0.41122    0.65427   1.00
H2       0.20058    0.35202    0.61339   1.00
H2       0.17963    0.39435    0.63324   1.00
H2       0.18604    0.39035    0.58218   1.00
H2       0.29646    0.39416    0.58240   1.00
H2       0.26721    0.35212    0.58379   1.00
H2       0.25444    0.39085    0.55239   1.00
H2       0.22073    0.53656    0.59447   1.00
H2       0.19337    0.52381    0.55261   1.00
H2       0.17811    0.50834    0.59883   1.00
H2       0.24487    0.49044    0.51690   1.00
H2       0.27842    0.50622    0.55264   1.00
H2       0.27638    0.45657    0.53870   1.00
C4       -0.02084   0.25116    0.74719   1.00
C4       0.02088    0.25145    0.74785   1.00
C3       -0.04364   0.27943    0.72724   1.00
C3       0.04384    0.28194    0.73169   1.00
C3       -0.04123   0.22141    0.76802   1.00
C3       0.04114    0.21962    0.76549   1.00
C2       -0.10512   0.24966    0.74885   1.00
C2       0.10512    0.25034    0.75115   1.00
C3       -0.08462   0.27886    0.72822   1.00
C3       0.08481    0.28124    0.73296   1.00
C3       -0.08258   0.22091    0.76804   1.00
C3       0.08238    0.22029    0.76794   1.00
H1       -0.03115   0.30119    0.71131   1.00
H1       0.03148    0.30566    0.71874   1.00
C5       -0.02020   0.19225    0.78856   1.00
C5       0.02020    0.18745    0.78089   1.00
H1       -0.09955   0.30023    0.71348   1.00
H1       0.09990    0.30392    0.72050   1.00
H1       -0.09680   0.19877    0.78221   1.00
H1       0.09632    0.19853    0.78284   1.00
O3       -0.03961   0.16766    0.81377   1.00
O3       0.03901    0.15321    0.79094   1.00
Si1      -0.04247   0.17862    0.86006   1.00
Si1      0.04721    0.12071    0.75712   1.00
C6       -0.07538   0.14131    0.87343   1.00
C6       0.00402    0.17075    0.88064   1.00
C6       -0.06253   0.22528    0.86875   1.00
C6       0.03307    0.13169    0.70874   1.00
C6       0.09802    0.11448    0.75905   1.00
C6       0.02523    0.07686    0.77252   1.00
C6       -0.11194   0.13630    0.84638   1.00
H2       -0.05791   0.11504    0.86895   1.00
C6       -0.09147   0.13823    0.91621   1.00
H2       0.01642    0.14915    0.86081   1.00
C6       0.03366    0.20547    0.88124   1.00
C6       0.00664    0.15212    0.92226   1.00
H2       -0.08831   0.22510    0.84996   1.00
C6       -0.07772   0.23401    0.91099   1.00
C6       -0.03849   0.26270    0.85752   1.00
C6       -0.01071   0.14196    0.70097   1.00
C6       0.05775    0.16134    0.68421   1.00
H2       0.03788    0.10394    0.69386   1.00
H2       0.10949    0.14183    0.74747   1.00
C6       0.11622    0.11041    0.80078   1.00
C6       0.11607    0.08114    0.73366   1.00
H2       0.04625    0.06446    0.79300   1.00
C6       -0.01336   0.08089    0.79627   1.00
C6       0.01756    0.04448    0.74119   1.00
H2       -0.10346   0.13186    0.81597   1.00
H2       -0.13090   0.16191    0.84770   1.00
H2       -0.12917   0.11082    0.85486   1.00
H2       -0.09608   0.10762    0.92396   1.00
H2       -0.07178   0.15063    0.93776   1.00
H2       -0.11964   0.15275    0.91961   1.00
H2       0.06328    0.19494    0.88677   1.00
H2       0.03468    0.22079    0.85345   1.00
H2       0.02648    0.22637    0.90418   1.00
H2       -0.00862   0.12420    0.92349   1.00
H2       0.03692    0.14605    0.93037   1.00
H2       -0.00550   0.17161    0.94437   1.00
H2       -0.05514   0.22830    0.93274   1.00
H2       -0.08708   0.26436    0.91435   1.00
H2       -0.10332   0.21663    0.91787   1.00
H2       -0.01902   0.27192    0.88099   1.00
H2       -0.02068   0.25899    0.83168   1.00
H2       -0.05828   0.28705    0.85165   1.00
H2       -0.01688   0.17255    0.70703   1.00
H2       -0.01809   0.13687    0.67035   1.00
H2       -0.03048   0.12420    0.71835   1.00
H2       0.04875    0.16083    0.65359   1.00
H2       0.05426    0.19122    0.69435   1.00
H2       0.08878    0.15427    0.68449   1.00
H2       0.14798    0.11339    0.79942   1.00
H2       0.10565    0.13324    0.82037   1.00
H2       0.10965    0.08218    0.81396   1.00
H2       0.10584    0.08240    0.70354   1.00
H2       0.14788    0.08379    0.73279   1.00
H2       0.10915    0.05239    0.74556   1.00
H2       -0.03656   0.09447    0.77927   1.00
H2       -0.02381   0.05261    0.80663   1.00
H2       -0.00834   0.09883    0.82189   1.00
H2       0.00956    0.01690    0.75513   1.00
H2       -0.00622   0.05264    0.72158   1.00
H2       0.04343    0.03870    0.72362   1.00
C4       0.52084    0.25116    0.75281   1.00
C4       0.47912    0.25145    0.75215   1.00
C3       0.54364    0.27943    0.77276   1.00
C3       0.45616    0.28194    0.76831   1.00
C3       0.54123    0.22141    0.73198   1.00
C3       0.45886    0.21962    0.73451   1.00
C2       0.60512    0.24966    0.75115   1.00
C2       0.39488    0.25034    0.74885   1.00
C3       0.58462    0.27886    0.77178   1.00
C3       0.41519    0.28124    0.76704   1.00
C3       0.58258    0.22091    0.73196   1.00
C3       0.41762    0.22029    0.73206   1.00
H1       0.53115    0.30119    0.78869   1.00
H1       0.46852    0.30566    0.78126   1.00
C5       0.52020    0.19225    0.71144   1.00
C5       0.47980    0.18745    0.71911   1.00
H1       0.59955    0.30023    0.78652   1.00
H1       0.40010    0.30392    0.77950   1.00
H1       0.59680    0.19877    0.71779   1.00
H1       0.40368    0.19853    0.71716   1.00
O3       0.53961    0.16766    0.68623   1.00
O3       0.46099    0.15321    0.70906   1.00
Si1      0.54247    0.17862    0.63994   1.00
Si1      0.45279    0.12071    0.74288   1.00
C6       0.57538    0.14131    0.62657   1.00
C6       0.49598    0.17075    0.61936   1.00
C6       0.56253    0.22528    0.63125   1.00
C6       0.46693    0.13169    0.79126   1.00
C6       0.40198    0.11448    0.74095   1.00
C6       0.47477    0.07686    0.72748   1.00
C6       0.61194    0.13630    0.65362   1.00
H2       0.55791    0.11504    0.63105   1.00
C6       0.59147    0.13823    0.58379   1.00
H2       0.48358    0.14915    0.63919   1.00
C6       0.46634    0.20547    0.61876   1.00
C6       0.49336    0.15212    0.57774   1.00
H2       0.58831    0.22510    0.65004   1.00
C6       0.57772    0.23401    0.58901   1.00
C6       0.53849    0.26270    0.64248   1.00
C6       0.51071    0.14196    0.79903   1.00
C6       0.44225    0.16134    0.81579   1.00
H2       0.46212    0.10394    0.80614   1.00
H2       0.39051    0.14183    0.75253   1.00
C6       0.38378    0.11041    0.69922   1.00
C6       0.38393    0.08114    0.76634   1.00
H2       0.45375    0.06446    0.70700   1.00
C6       0.51336    0.08089    0.70373   1.00
C6       0.48244    0.04448    0.75881   1.00
H2       0.60346    0.13186    0.68403   1.00
H2       0.63090    0.16191    0.65230   1.00
H2       0.62917    0.11082    0.64514   1.00
H2       0.59608    0.10762    0.57604   1.00
H2       0.57178    0.15063    0.56224   1.00
H2       0.61964    0.15275    0.58039   1.00
H2       0.43672    0.19494    0.61323   1.00
H2       0.46532    0.22079    0.64655   1.00
H2       0.47352    0.22637    0.59582   1.00
H2       0.50862    0.12420    0.57651   1.00
H2       0.46308    0.14605    0.56963   1.00
H2       0.50550    0.17161    0.55563   1.00
H2       0.55514    0.22830    0.56726   1.00
H2       0.58708    0.26436    0.58565   1.00
H2       0.60332    0.21663    0.58213   1.00
H2       0.51902    0.27192    0.61901   1.00
H2       0.52068    0.25899    0.66832   1.00
H2       0.55828    0.28705    0.64835   1.00
H2       0.51688    0.17255    0.79297   1.00
H2       0.51809    0.13687    0.82965   1.00
H2       0.53048    0.12420    0.78165   1.00
H2       0.45125    0.16083    0.84641   1.00
H2       0.44574    0.19122    0.80565   1.00
H2       0.41122    0.15427    0.81551   1.00
H2       0.35202    0.11339    0.70058   1.00
H2       0.39435    0.13324    0.67963   1.00
H2       0.39035    0.08218    0.68604   1.00
H2       0.39416    0.08240    0.79646   1.00
H2       0.35212    0.08379    0.76721   1.00
H2       0.39085    0.05239    0.75444   1.00
H2       0.53656    0.09447    0.72073   1.00
H2       0.52381    0.05261    0.69337   1.00
H2       0.50834    0.09883    0.67811   1.00
H2       0.49044    0.01690    0.74487   1.00
H2       0.50622    0.05264    0.77842   1.00
H2       0.45657    0.03870    0.77638   1.00
C4       0.24719    -0.02084   0.75116   1.00
C4       0.24785    0.02088    0.75145   1.00
C3       0.22724    -0.04364   0.77943   1.00
C3       0.23169    0.04384    0.78194   1.00
C3       0.26802    -0.04123   0.72141   1.00
C3       0.26549    0.04114    0.71962   1.00
C2       0.24885    -0.10512   0.74966   1.00
C2       0.25115    0.10512    0.75034   1.00
C3       0.22822    -0.08462   0.77886   1.00
C3       0.23296    0.08481    0.78124   1.00
C3       0.26804    -0.08258   0.72091   1.00
C3       0.26794    0.08238    0.72029   1.00
H1       0.21131    -0.03115   0.80119   1.00
H1       0.21874    0.03148    0.80566   1.00
C5       0.28856    -0.02020   0.69225   1.00
C5       0.28089    0.02020    0.68745   1.00
H1       0.21348    -0.09955   0.80023   1.00
H1       0.22050    0.09990    0.80392   1.00
H1       0.28221    -0.09680   0.69877   1.00
H1       0.28284    0.09632    0.69853   1.00
O3       0.31377    -0.03961   0.66766   1.00
O3       0.29094    0.03901    0.65321   1.00
Si1      0.36006    -0.04247   0.67862   1.00
Si1      0.25712    0.04721    0.62071   1.00
C6       0.37343    -0.07538   0.64131   1.00
C6       0.38064    0.00402    0.67075   1.00
C6       0.36875    -0.06253   0.72528   1.00
C6       0.20874    0.03307    0.63169   1.00
C6       0.25905    0.09802    0.61448   1.00
C6       0.27252    0.02523    0.57686   1.00
C6       0.34638    -0.11194   0.63630   1.00
H2       0.36895    -0.05791   0.61504   1.00
C6       0.41621    -0.09147   0.63823   1.00
H2       0.36081    0.01642    0.64915   1.00
C6       0.38124    0.03366    0.70547   1.00
C6       0.42226    0.00664    0.65212   1.00
H2       0.34996    -0.08831   0.72510   1.00
C6       0.41099    -0.07772   0.73401   1.00
C6       0.35752    -0.03849   0.76270   1.00
C6       0.20097    -0.01071   0.64196   1.00
C6       0.18421    0.05775    0.66134   1.00
H2       0.19386    0.03788    0.60394   1.00
H2       0.24747    0.10949    0.64183   1.00
C6       0.30078    0.11622    0.61041   1.00
C6       0.23366    0.11607    0.58114   1.00
H2       0.29300    0.04625    0.56446   1.00
C6       0.29627    -0.01336   0.58089   1.00
C6       0.24119    0.01756    0.54448   1.00
H2       0.31597    -0.10346   0.63186   1.00
H2       0.34770    -0.13090   0.66191   1.00
H2       0.35486    -0.12917   0.61082   1.00
H2       0.42396    -0.09608   0.60762   1.00
H2       0.43776    -0.07178   0.65063   1.00
H2       0.41961    -0.11964   0.65275   1.00
H2       0.38677    0.06328    0.69494   1.00
H2       0.35345    0.03468    0.72079   1.00
H2       0.40418    0.02648    0.72637   1.00
H2       0.42349    -0.00862   0.62420   1.00
H2       0.43037    0.03692    0.64605   1.00
H2       0.44437    -0.00550   0.67161   1.00
H2       0.43274    -0.05514   0.72830   1.00
H2       0.41435    -0.08708   0.76436   1.00
H2       0.41787    -0.10332   0.71663   1.00
H2       0.38099    -0.01902   0.77192   1.00
H2       0.33168    -0.02068   0.75899   1.00
H2       0.35165    -0.05828   0.78705   1.00
H2       0.20703    -0.01688   0.67255   1.00
H2       0.17035    -0.01809   0.63687   1.00
H2       0.21835    -0.03048   0.62420   1.00
H2       0.15359    0.04875    0.66083   1.00
H2       0.19435    0.05426    0.69122   1.00
H2       0.18449    0.08878    0.65427   1.00
H2       0.29942    0.14798    0.61339   1.00
H2       0.32037    0.10565    0.63324   1.00
H2       0.31396    0.10965    0.58218   1.00
H2       0.20354    0.10584    0.58240   1.00
H2       0.23279    0.14788    0.58379   1.00
H2       0.24556    0.10915    0.55239   1.00
H2       0.27927    -0.03656   0.59447   1.00
H2       0.30663    -0.02381   0.55261   1.00
H2       0.32189    -0.00834   0.59883   1.00
H2       0.25513    0.00956    0.51690   1.00
H2       0.22158    -0.00622   0.55264   1.00
H2       0.22362    0.04343    0.53870   1.00
C4       0.25116    0.24719    0.47916   1.00
C4       0.25145    0.24785    0.52088   1.00
C3       0.27943    0.22724    0.45636   1.00
C3       0.28194    0.23169    0.54384   1.00
C3       0.22141    0.26802    0.45877   1.00
C3       0.21962    0.26549    0.54114   1.00
C2       0.24966    0.24885    0.39488   1.00
C2       0.25034    0.25115    0.60512   1.00
C3       0.27886    0.22822    0.41538   1.00
C3       0.28124    0.23296    0.58481   1.00
C3       0.22091    0.26804    0.41742   1.00
C3       0.22029    0.26794    0.58238   1.00
H1       0.30119    0.21131    0.46885   1.00
H1       0.30566    0.21874    0.53148   1.00
C5       0.19225    0.28856    0.47980   1.00
C5       0.18745    0.28089    0.52020   1.00
H1       0.30023    0.21348    0.40045   1.00
H1       0.30392    0.22050    0.59990   1.00
H1       0.19877    0.28221    0.40320   1.00
H1       0.19853    0.28284    0.59632   1.00
O3       0.16766    0.31377    0.46039   1.00
O3       0.15321    0.29094    0.53901   1.00
Si1      0.17862    0.36006    0.45753   1.00
Si1      0.12071    0.25712    0.54721   1.00
C6       0.14131    0.37343    0.42462   1.00
C6       0.17075    0.38064    0.50402   1.00
C6       0.22528    0.36875    0.43747   1.00
C6       0.13169    0.20874    0.53307   1.00
C6       0.11448    0.25905    0.59802   1.00
C6       0.07686    0.27252    0.52523   1.00
C6       0.13630    0.34638    0.38806   1.00
H2       0.11504    0.36895    0.44209   1.00
C6       0.13823    0.41621    0.40853   1.00
H2       0.14915    0.36081    0.51642   1.00
C6       0.20547    0.38124    0.53366   1.00
C6       0.15212    0.42226    0.50664   1.00
H2       0.22510    0.34996    0.41169   1.00
C6       0.23401    0.41099    0.42228   1.00
C6       0.26270    0.35752    0.46151   1.00
C6       0.14196    0.20097    0.48929   1.00
C6       0.16134    0.18421    0.55775   1.00
H2       0.10394    0.19386    0.53788   1.00
H2       0.14183    0.24747    0.60949   1.00
C6       0.11041    0.30078    0.61622   1.00
C6       0.08114    0.23366    0.61607   1.00
H2       0.06446    0.29300    0.54625   1.00
C6       0.08089    0.29627    0.48664   1.00
C6       0.04448    0.24119    0.51756   1.00
H2       0.13186    0.31597    0.39654   1.00
H2       0.16191    0.34770    0.36910   1.00
H2       0.11082    0.35486    0.37083   1.00
H2       0.10762    0.42396    0.40392   1.00
H2       0.15063    0.43776    0.42822   1.00
H2       0.15275    0.41961    0.38036   1.00
H2       0.19494    0.38677    0.56328   1.00
H2       0.22079    0.35345    0.53468   1.00
H2       0.22637    0.40418    0.52648   1.00
H2       0.12420    0.42349    0.49138   1.00
H2       0.14605    0.43037    0.53692   1.00
H2       0.17161    0.44437    0.49450   1.00
H2       0.22830    0.43274    0.44486   1.00
H2       0.26436    0.41435    0.41292   1.00
H2       0.21663    0.41787    0.39668   1.00
H2       0.27192    0.38099    0.48098   1.00
H2       0.25899    0.33168    0.47932   1.00
H2       0.28705    0.35165    0.44172   1.00
H2       0.17255    0.20703    0.48312   1.00
H2       0.13687    0.17035    0.48191   1.00
H2       0.12420    0.21835    0.46952   1.00
H2       0.16083    0.15359    0.54875   1.00
H2       0.19122    0.19435    0.55426   1.00
H2       0.15427    0.18449    0.58878   1.00
H2       0.11339    0.29942    0.64798   1.00
H2       0.13324    0.32037    0.60565   1.00
H2       0.08218    0.31396    0.60965   1.00
H2       0.08240    0.20354    0.60584   1.00
H2       0.08379    0.23279    0.64788   1.00
H2       0.05239    0.24556    0.60915   1.00
H2       0.09447    0.27927    0.46344   1.00
H2       0.05261    0.30663    0.47619   1.00
H2       0.09883    0.32189    0.49166   1.00
H2       0.01690    0.25513    0.50956   1.00
H2       0.05264    0.22158    0.49378   1.00
H2       0.03870    0.22362    0.54343   1.00
C4       0.25116    0.75281    0.52084   1.00
C4       0.25145    0.75215    0.47912   1.00
C3       0.27943    0.77276    0.54364   1.00
C3       0.28194    0.76831    0.45616   1.00
C3       0.22141    0.73198    0.54123   1.00
C3       0.21962    0.73451    0.45886   1.00
C2       0.24966    0.75115    0.60512   1.00
C2       0.25034    0.74885    0.39488   1.00
C3       0.27886    0.77178    0.58462   1.00
C3       0.28124    0.76704    0.41519   1.00
C3       0.22091    0.73196    0.58258   1.00
C3       0.22029    0.73206    0.41762   1.00
H1       0.30119    0.78869    0.53115   1.00
H1       0.30566    0.78126    0.46852   1.00
C5       0.19225    0.71144    0.52020   1.00
C5       0.18745    0.71911    0.47980   1.00
H1       0.30023    0.78652    0.59955   1.00
H1       0.30392    0.77950    0.40010   1.00
H1       0.19877    0.71779    0.59680   1.00
H1       0.19853    0.71716    0.40368   1.00
O3       0.16766    0.68623    0.53961   1.00
O3       0.15321    0.70906    0.46099   1.00
Si1      0.17862    0.63994    0.54247   1.00
Si1      0.12071    0.74288    0.45279   1.00
C6       0.14131    0.62657    0.57538   1.00
C6       0.17075    0.61936    0.49598   1.00
C6       0.22528    0.63125    0.56253   1.00
C6       0.13169    0.79126    0.46693   1.00
C6       0.11448    0.74095    0.40198   1.00
C6       0.07686    0.72748    0.47477   1.00
C6       0.13630    0.65362    0.61194   1.00
H2       0.11504    0.63105    0.55791   1.00
C6       0.13823    0.58379    0.59147   1.00
H2       0.14915    0.63919    0.48358   1.00
C6       0.20547    0.61876    0.46634   1.00
C6       0.15212    0.57774    0.49336   1.00
H2       0.22510    0.65004    0.58831   1.00
C6       0.23401    0.58901    0.57772   1.00
C6       0.26270    0.64248    0.53849   1.00
C6       0.14196    0.79903    0.51071   1.00
C6       0.16134    0.81579    0.44225   1.00
H2       0.10394    0.80614    0.46212   1.00
H2       0.14183    0.75253    0.39051   1.00
C6       0.11041    0.69922    0.38378   1.00
C6       0.08114    0.76634    0.38393   1.00
H2       0.06446    0.70700    0.45375   1.00
C6       0.08089    0.70373    0.51336   1.00
C6       0.04448    0.75881    0.48244   1.00
H2       0.13186    0.68403    0.60346   1.00
H2       0.16191    0.65230    0.63090   1.00
H2       0.11082    0.64514    0.62917   1.00
H2       0.10762    0.57604    0.59608   1.00
H2       0.15063    0.56224    0.57178   1.00
H2       0.15275    0.58039    0.61964   1.00
H2       0.19494    0.61323    0.43672   1.00
H2       0.22079    0.64655    0.46532   1.00
H2       0.22637    0.59582    0.47352   1.00
H2       0.12420    0.57651    0.50862   1.00
H2       0.14605    0.56963    0.46308   1.00
H2       0.17161    0.55563    0.50550   1.00
H2       0.22830    0.56726    0.55514   1.00
H2       0.26436    0.58565    0.58708   1.00
H2       0.21663    0.58213    0.60332   1.00
H2       0.27192    0.61901    0.51902   1.00
H2       0.25899    0.66832    0.52068   1.00
H2       0.28705    0.64835    0.55828   1.00
H2       0.17255    0.79297    0.51688   1.00
H2       0.13687    0.82965    0.51809   1.00
H2       0.12420    0.78165    0.53048   1.00
H2       0.16083    0.84641    0.45125   1.00
H2       0.19122    0.80565    0.44574   1.00
H2       0.15427    0.81551    0.41122   1.00
H2       0.11339    0.70058    0.35202   1.00
H2       0.13324    0.67963    0.39435   1.00
H2       0.08218    0.68604    0.39035   1.00
H2       0.08240    0.79646    0.39416   1.00
H2       0.08379    0.76721    0.35212   1.00
H2       0.05239    0.75444    0.39085   1.00
H2       0.09447    0.72073    0.53656   1.00
H2       0.05261    0.69337    0.52381   1.00
H2       0.09883    0.67811    0.50834   1.00
H2       0.01690    0.74487    0.49044   1.00
H2       0.05264    0.77842    0.50622   1.00
H2       0.03870    0.77638    0.45657   1.00
C4       0.25281    1.02084    0.25116   1.00
C4       0.25215    0.97912    0.25145   1.00
C3       0.27276    1.04364    0.27943   1.00
C3       0.26831    0.95616    0.28194   1.00
C3       0.23198    1.04123    0.22141   1.00
C3       0.23451    0.95886    0.21962   1.00
C2       0.25115    1.10512    0.24966   1.00
C2       0.24885    0.89488    0.25034   1.00
C3       0.27178    1.08462    0.27886   1.00
C3       0.26704    0.91519    0.28124   1.00
C3       0.23196    1.08258    0.22091   1.00
C3       0.23206    0.91762    0.22029   1.00
H1       0.28869    1.03115    0.30119   1.00
H1       0.28126    0.96852    0.30566   1.00
C5       0.21144    1.02020    0.19225   1.00
C5       0.21911    0.97980    0.18745   1.00
H1       0.28652    1.09955    0.30023   1.00
H1       0.27950    0.90010    0.30392   1.00
H1       0.21779    1.09680    0.19877   1.00
H1       0.21716    0.90368    0.19853   1.00
O3       0.18623    1.03961    0.16766   1.00
O3       0.20906    0.96099    0.15321   1.00
Si1      0.13994    1.04247    0.17862   1.00
Si1      0.24288    0.95279    0.12071   1.00
C6       0.12657    1.07538    0.14131   1.00
C6       0.11936    0.99598    0.17075   1.00
C6       0.13125    1.06253    0.22528   1.00
C6       0.29126    0.96693    0.13169   1.00
C6       0.24095    0.90198    0.11448   1.00
C6       0.22748    0.97477    0.07686   1.00
C6       0.15362    1.11194    0.13630   1.00
H2       0.13105    1.05791    0.11504   1.00
C6       0.08379    1.09147    0.13823   1.00
H2       0.13919    0.98358    0.14915   1.00
C6       0.11876    0.96634    0.20547   1.00
C6       0.07774    0.99336    0.15212   1.00
H2       0.15004    1.08831    0.22510   1.00
C6       0.08901    1.07772    0.23401   1.00
C6       0.14248    1.03849    0.26270   1.00
C6       0.29903    1.01071    0.14196   1.00
C6       0.31579    0.94225    0.16134   1.00
H2       0.30614    0.96212    0.10394   1.00
H2       0.25253    0.89051    0.14183   1.00
C6       0.19922    0.88378    0.11041   1.00
C6       0.26634    0.88393    0.08114   1.00
H2       0.20700    0.95375    0.06446   1.00
C6       0.20373    1.01336    0.08089   1.00
C6       0.25881    0.98244    0.04448   1.00
H2       0.18403    1.10346    0.13186   1.00
H2       0.15230    1.13090    0.16191   1.00
H2       0.14514    1.12917    0.11082   1.00
H2       0.07604    1.09608    0.10762   1.00
H2       0.06224    1.07178    0.15063   1.00
H2       0.08039    1.11964    0.15275   1.00
H2       0.11323    0.93672    0.19494   1.00
H2       0.14655    0.96532    0.22079   1.00
H2       0.09582    0.97352    0.22637   1.00
H2       0.07651    1.00862    0.12420   1.00
H2       0.06963    0.96308    0.14605   1.00
H2       0.05563    1.00550    0.17161   1.00
H2       0.06726    1.05514    0.22830   1.00
H2       0.08565    1.08708    0.26436   1.00
H2       0.08213    1.10332    0.21663   1.00
H2       0.11901    1.01902    0.27192   1.00
H2       0.16832    1.02068    0.25899   1.00
H2       0.14835    1.05828    0.28705   1.00
H2       0.29297    1.01688    0.17255   1.00
H2       0.32965    1.01809    0.13687   1.00
H2       0.28165    1.03048    0.12420   1.00
H2       0.34641    0.95125    0.16083   1.00
H2       0.30565    0.94574    0.19122   1.00
H2       0.31551    0.91122    0.15427   1.00
H2       0.20058    0.85202    0.11339   1.00
H2       0.17963    0.89435    0.13324   1.00
H2       0.18604    0.89035    0.08218   1.00
H2       0.29646    0.89416    0.08240   1.00
H2       0.26721    0.85212    0.08379   1.00
H2       0.25444    0.89085    0.05239   1.00
H2       0.22073    1.03656    0.09447   1.00
H2       0.19337    1.02381    0.05261   1.00
H2       0.17811    1.00834    0.09883   1.00
H2       0.24487    0.99044    0.01690   1.00
H2       0.27842    1.00622    0.05264   1.00
H2       0.27638    0.95657    0.03870   1.00
C4       -0.02084   0.75116    0.24719   1.00
C4       0.02088    0.75145    0.24785   1.00
C3       -0.04364   0.77943    0.22724   1.00
C3       0.04384    0.78194    0.23169   1.00
C3       -0.04123   0.72141    0.26802   1.00
C3       0.04114    0.71962    0.26549   1.00
C2       -0.10512   0.74966    0.24885   1.00
C2       0.10512    0.75034    0.25115   1.00
C3       -0.08462   0.77886    0.22822   1.00
C3       0.08481    0.78124    0.23296   1.00
C3       -0.08258   0.72091    0.26804   1.00
C3       0.08238    0.72029    0.26794   1.00
H1       -0.03115   0.80119    0.21131   1.00
H1       0.03148    0.80566    0.21874   1.00
C5       -0.02020   0.69225    0.28856   1.00
C5       0.02020    0.68745    0.28089   1.00
H1       -0.09955   0.80023    0.21348   1.00
H1       0.09990    0.80392    0.22050   1.00
H1       -0.09680   0.69877    0.28221   1.00
H1       0.09632    0.69853    0.28284   1.00
O3       -0.03961   0.66766    0.31377   1.00
O3       0.03901    0.65321    0.29094   1.00
Si1      -0.04247   0.67862    0.36006   1.00
Si1      0.04721    0.62071    0.25712   1.00
C6       -0.07538   0.64131    0.37343   1.00
C6       0.00402    0.67075    0.38064   1.00
C6       -0.06253   0.72528    0.36875   1.00
C6       0.03307    0.63169    0.20874   1.00
C6       0.09802    0.61448    0.25905   1.00
C6       0.02523    0.57686    0.27252   1.00
C6       -0.11194   0.63630    0.34638   1.00
H2       -0.05791   0.61504    0.36895   1.00
C6       -0.09147   0.63823    0.41621   1.00
H2       0.01642    0.64915    0.36081   1.00
C6       0.03366    0.70547    0.38124   1.00
C6       0.00664    0.65212    0.42226   1.00
H2       -0.08831   0.72510    0.34996   1.00
C6       -0.07772   0.73401    0.41099   1.00
C6       -0.03849   0.76270    0.35752   1.00
C6       -0.01071   0.64196    0.20097   1.00
C6       0.05775    0.66134    0.18421   1.00
H2       0.03788    0.60394    0.19386   1.00
H2       0.10949    0.64183    0.24747   1.00
C6       0.11622    0.61041    0.30078   1.00
C6       0.11607    0.58114    0.23366   1.00
H2       0.04625    0.56446    0.29300   1.00
C6       -0.01336   0.58089    0.29627   1.00
C6       0.01756    0.54448    0.24119   1.00
H2       -0.10346   0.63186    0.31597   1.00
H2       -0.13090   0.66191    0.34770   1.00
H2       -0.12917   0.61082    0.35486   1.00
H2       -0.09608   0.60762    0.42396   1.00
H2       -0.07178   0.65063    0.43776   1.00
H2       -0.11964   0.65275    0.41961   1.00
H2       0.06328    0.69494    0.38677   1.00
H2       0.03468    0.72079    0.35345   1.00
H2       0.02648    0.72637    0.40418   1.00
H2       -0.00862   0.62420    0.42349   1.00
H2       0.03692    0.64605    0.43037   1.00
H2       -0.00550   0.67161    0.44437   1.00
H2       -0.05514   0.72830    0.43274   1.00
H2       -0.08708   0.76436    0.41435   1.00
H2       -0.10332   0.71663    0.41787   1.00
H2       -0.01902   0.77192    0.38099   1.00
H2       -0.02068   0.75899    0.33168   1.00
H2       -0.05828   0.78705    0.35165   1.00
H2       -0.01688   0.67255    0.20703   1.00
H2       -0.01809   0.63687    0.17035   1.00
H2       -0.03048   0.62420    0.21835   1.00
H2       0.04875    0.66083    0.15359   1.00
H2       0.05426    0.69122    0.19435   1.00
H2       0.08878    0.65427    0.18449   1.00
H2       0.14798    0.61339    0.29942   1.00
H2       0.10565    0.63324    0.32037   1.00
H2       0.10965    0.58218    0.31396   1.00
H2       0.10584    0.58240    0.20354   1.00
H2       0.14788    0.58379    0.23279   1.00
H2       0.10915    0.55239    0.24556   1.00
H2       -0.03656   0.59447    0.27927   1.00
H2       -0.02381   0.55261    0.30663   1.00
H2       -0.00834   0.59883    0.32189   1.00
H2       0.00956    0.51690    0.25513   1.00
H2       -0.00622   0.55264    0.22158   1.00
H2       0.04343    0.53870    0.22362   1.00
C4       0.52084    0.75116    0.25281   1.00
C4       0.47912    0.75145    0.25215   1.00
C3       0.54364    0.77943    0.27276   1.00
C3       0.45616    0.78194    0.26831   1.00
C3       0.54123    0.72141    0.23198   1.00
C3       0.45886    0.71962    0.23451   1.00
C2       0.60512    0.74966    0.25115   1.00
C2       0.39488    0.75034    0.24885   1.00
C3       0.58462    0.77886    0.27178   1.00
C3       0.41519    0.78124    0.26704   1.00
C3       0.58258    0.72091    0.23196   1.00
C3       0.41762    0.72029    0.23206   1.00
H1       0.53115    0.80119    0.28869   1.00
H1       0.46852    0.80566    0.28126   1.00
C5       0.52020    0.69225    0.21144   1.00
C5       0.47980    0.68745    0.21911   1.00
H1       0.59955    0.80023    0.28652   1.00
H1       0.40010    0.80392    0.27950   1.00
H1       0.59680    0.69877    0.21779   1.00
H1       0.40368    0.69853    0.21716   1.00
O3       0.53961    0.66766    0.18623   1.00
O3       0.46099    0.65321    0.20906   1.00
Si1      0.54247    0.67862    0.13994   1.00
Si1      0.45279    0.62071    0.24288   1.00
C6       0.57538    0.64131    0.12657   1.00
C6       0.49598    0.67075    0.11936   1.00
C6       0.56253    0.72528    0.13125   1.00
C6       0.46693    0.63169    0.29126   1.00
C6       0.40198    0.61448    0.24095   1.00
C6       0.47477    0.57686    0.22748   1.00
C6       0.61194    0.63630    0.15362   1.00
H2       0.55791    0.61504    0.13105   1.00
C6       0.59147    0.63823    0.08379   1.00
H2       0.48358    0.64915    0.13919   1.00
C6       0.46634    0.70547    0.11876   1.00
C6       0.49336    0.65212    0.07774   1.00
H2       0.58831    0.72510    0.15004   1.00
C6       0.57772    0.73401    0.08901   1.00
C6       0.53849    0.76270    0.14248   1.00
C6       0.51071    0.64196    0.29903   1.00
C6       0.44225    0.66134    0.31579   1.00
H2       0.46212    0.60394    0.30614   1.00
H2       0.39051    0.64183    0.25253   1.00
C6       0.38378    0.61041    0.19922   1.00
C6       0.38393    0.58114    0.26634   1.00
H2       0.45375    0.56446    0.20700   1.00
C6       0.51336    0.58089    0.20373   1.00
C6       0.48244    0.54448    0.25881   1.00
H2       0.60346    0.63186    0.18403   1.00
H2       0.63090    0.66191    0.15230   1.00
H2       0.62917    0.61082    0.14514   1.00
H2       0.59608    0.60762    0.07604   1.00
H2       0.57178    0.65063    0.06224   1.00
H2       0.61964    0.65275    0.08039   1.00
H2       0.43672    0.69494    0.11323   1.00
H2       0.46532    0.72079    0.14655   1.00
H2       0.47352    0.72637    0.09582   1.00
H2       0.50862    0.62420    0.07651   1.00
H2       0.46308    0.64605    0.06963   1.00
H2       0.50550    0.67161    0.05563   1.00
H2       0.55514    0.72830    0.06726   1.00
H2       0.58708    0.76436    0.08565   1.00
H2       0.60332    0.71663    0.08213   1.00
H2       0.51902    0.77192    0.11901   1.00
H2       0.52068    0.75899    0.16832   1.00
H2       0.55828    0.78705    0.14835   1.00
H2       0.51688    0.67255    0.29297   1.00
H2       0.51809    0.63687    0.32965   1.00
H2       0.53048    0.62420    0.28165   1.00
H2       0.45125    0.66083    0.34641   1.00
H2       0.44574    0.69122    0.30565   1.00
H2       0.41122    0.65427    0.31551   1.00
H2       0.35202    0.61339    0.20058   1.00
H2       0.39435    0.63324    0.17963   1.00
H2       0.39035    0.58218    0.18604   1.00
H2       0.39416    0.58240    0.29646   1.00
H2       0.35212    0.58379    0.26721   1.00
H2       0.39085    0.55239    0.25444   1.00
H2       0.53656    0.59447    0.22073   1.00
H2       0.52381    0.55261    0.19337   1.00
H2       0.50834    0.59883    0.17811   1.00
H2       0.49044    0.51690    0.24487   1.00
H2       0.50622    0.55264    0.27842   1.00
H2       0.45657    0.53870    0.27638   1.00
C4       0.24719    0.47916    0.25116   1.00
C4       0.24785    0.52088    0.25145   1.00
C3       0.22724    0.45636    0.27943   1.00
C3       0.23169    0.54384    0.28194   1.00
C3       0.26802    0.45877    0.22141   1.00
C3       0.26549    0.54114    0.21962   1.00
C2       0.24885    0.39488    0.24966   1.00
C2       0.25115    0.60512    0.25034   1.00
C3       0.22822    0.41538    0.27886   1.00
C3       0.23296    0.58481    0.28124   1.00
C3       0.26804    0.41742    0.22091   1.00
C3       0.26794    0.58238    0.22029   1.00
H1       0.21131    0.46885    0.30119   1.00
H1       0.21874    0.53148    0.30566   1.00
C5       0.28856    0.47980    0.19225   1.00
C5       0.28089    0.52020    0.18745   1.00
H1       0.21348    0.40045    0.30023   1.00
H1       0.22050    0.59990    0.30392   1.00
H1       0.28221    0.40320    0.19877   1.00
H1       0.28284    0.59632    0.19853   1.00
O3       0.31377    0.46039    0.16766   1.00
O3       0.29094    0.53901    0.15321   1.00
Si1      0.36006    0.45753    0.17862   1.00
Si1      0.25712    0.54721    0.12071   1.00
C6       0.37343    0.42462    0.14131   1.00
C6       0.38064    0.50402    0.17075   1.00
C6       0.36875    0.43747    0.22528   1.00
C6       0.20874    0.53307    0.13169   1.00
C6       0.25905    0.59802    0.11448   1.00
C6       0.27252    0.52523    0.07686   1.00
C6       0.34638    0.38806    0.13630   1.00
H2       0.36895    0.44209    0.11504   1.00
C6       0.41621    0.40853    0.13823   1.00
H2       0.36081    0.51642    0.14915   1.00
C6       0.38124    0.53366    0.20547   1.00
C6       0.42226    0.50664    0.15212   1.00
H2       0.34996    0.41169    0.22510   1.00
C6       0.41099    0.42228    0.23401   1.00
C6       0.35752    0.46151    0.26270   1.00
C6       0.20097    0.48929    0.14196   1.00
C6       0.18421    0.55775    0.16134   1.00
H2       0.19386    0.53788    0.10394   1.00
H2       0.24747    0.60949    0.14183   1.00
C6       0.30078    0.61622    0.11041   1.00
C6       0.23366    0.61607    0.08114   1.00
H2       0.29300    0.54625    0.06446   1.00
C6       0.29627    0.48664    0.08089   1.00
C6       0.24119    0.51756    0.04448   1.00
H2       0.31597    0.39654    0.13186   1.00
H2       0.34770    0.36910    0.16191   1.00
H2       0.35486    0.37083    0.11082   1.00
H2       0.42396    0.40392    0.10762   1.00
H2       0.43776    0.42822    0.15063   1.00
H2       0.41961    0.38036    0.15275   1.00
H2       0.38677    0.56328    0.19494   1.00
H2       0.35345    0.53468    0.22079   1.00
H2       0.40418    0.52648    0.22637   1.00
H2       0.42349    0.49138    0.12420   1.00
H2       0.43037    0.53692    0.14605   1.00
H2       0.44437    0.49450    0.17161   1.00
H2       0.43274    0.44486    0.22830   1.00
H2       0.41435    0.41292    0.26436   1.00
H2       0.41787    0.39668    0.21663   1.00
H2       0.38099    0.48098    0.27192   1.00
H2       0.33168    0.47932    0.25899   1.00
H2       0.35165    0.44172    0.28705   1.00
H2       0.20703    0.48312    0.17255   1.00
H2       0.17035    0.48191    0.13687   1.00
H2       0.21835    0.46952    0.12420   1.00
H2       0.15359    0.54875    0.16083   1.00
H2       0.19435    0.55426    0.19122   1.00
H2       0.18449    0.58878    0.15427   1.00
H2       0.29942    0.64798    0.11339   1.00
H2       0.32037    0.60565    0.13324   1.00
H2       0.31396    0.60965    0.08218   1.00
H2       0.20354    0.60584    0.08240   1.00
H2       0.23279    0.64788    0.08379   1.00
H2       0.24556    0.60915    0.05239   1.00
H2       0.27927    0.46344    0.09447   1.00
H2       0.30663    0.47619    0.05261   1.00
H2       0.32189    0.49166    0.09883   1.00
H2       0.25513    0.50956    0.01690   1.00
H2       0.22158    0.49378    0.05264   1.00
H2       0.22362    0.54343    0.03870   1.00
C4       0.25116    0.74719    -0.02084   1.00
C4       0.25145    0.74785    0.02088   1.00
C3       0.27943    0.72724    -0.04364   1.00
C3       0.28194    0.73169    0.04384   1.00
C3       0.22141    0.76802    -0.04123   1.00
C3       0.21962    0.76549    0.04114   1.00
C2       0.24966    0.74885    -0.10512   1.00
C2       0.25034    0.75115    0.10512   1.00
C3       0.27886    0.72822    -0.08462   1.00
C3       0.28124    0.73296    0.08481   1.00
C3       0.22091    0.76804    -0.08258   1.00
C3       0.22029    0.76794    0.08238   1.00
H1       0.30119    0.71131    -0.03115   1.00
H1       0.30566    0.71874    0.03148   1.00
C5       0.19225    0.78856    -0.02020   1.00
C5       0.18745    0.78089    0.02020   1.00
H1       0.30023    0.71348    -0.09955   1.00
H1       0.30392    0.72050    0.09990   1.00
H1       0.19877    0.78221    -0.09680   1.00
H1       0.19853    0.78284    0.09632   1.00
O3       0.16766    0.81377    -0.03961   1.00
O3       0.15321    0.79094    0.03901   1.00
Si1      0.17862    0.86006    -0.04247   1.00
Si1      0.12071    0.75712    0.04721   1.00
C6       0.14131    0.87343    -0.07538   1.00
C6       0.17075    0.88064    0.00402   1.00
C6       0.22528    0.86875    -0.06253   1.00
C6       0.13169    0.70874    0.03307   1.00
C6       0.11448    0.75905    0.09802   1.00
C6       0.07686    0.77252    0.02523   1.00
C6       0.13630    0.84638    -0.11194   1.00
H2       0.11504    0.86895    -0.05791   1.00
C6       0.13823    0.91621    -0.09147   1.00
H2       0.14915    0.86081    0.01642   1.00
C6       0.20547    0.88124    0.03366   1.00
C6       0.15212    0.92226    0.00664   1.00
H2       0.22510    0.84996    -0.08831   1.00
C6       0.23401    0.91099    -0.07772   1.00
C6       0.26270    0.85752    -0.03849   1.00
C6       0.14196    0.70097    -0.01071   1.00
C6       0.16134    0.68421    0.05775   1.00
H2       0.10394    0.69386    0.03788   1.00
H2       0.14183    0.74747    0.10949   1.00
C6       0.11041    0.80078    0.11622   1.00
C6       0.08114    0.73366    0.11607   1.00
H2       0.06446    0.79300    0.04625   1.00
C6       0.08089    0.79627    -0.01336   1.00
C6       0.04448    0.74119    0.01756   1.00
H2       0.13186    0.81597    -0.10346   1.00
H2       0.16191    0.84770    -0.13090   1.00
H2       0.11082    0.85486    -0.12917   1.00
H2       0.10762    0.92396    -0.09608   1.00
H2       0.15063    0.93776    -0.07178   1.00
H2       0.15275    0.91961    -0.11964   1.00
H2       0.19494    0.88677    0.06328   1.00
H2       0.22079    0.85345    0.03468   1.00
H2       0.22637    0.90418    0.02648   1.00
H2       0.12420    0.92349    -0.00862   1.00
H2       0.14605    0.93037    0.03692   1.00
H2       0.17161    0.94437    -0.00550   1.00
H2       0.22830    0.93274    -0.05514   1.00
H2       0.26436    0.91435    -0.08708   1.00
H2       0.21663    0.91787    -0.10332   1.00
H2       0.27192    0.88099    -0.01902   1.00
H2       0.25899    0.83168    -0.02068   1.00
H2       0.28705    0.85165    -0.05828   1.00
H2       0.17255    0.70703    -0.01688   1.00
H2       0.13687    0.67035    -0.01809   1.00
H2       0.12420    0.71835    -0.03048   1.00
H2       0.16083    0.65359    0.04875   1.00
H2       0.19122    0.69435    0.05426   1.00
H2       0.15427    0.68449    0.08878   1.00
H2       0.11339    0.79942    0.14798   1.00
H2       0.13324    0.82037    0.10565   1.00
H2       0.08218    0.81396    0.10965   1.00
H2       0.08240    0.70354    0.10584   1.00
H2       0.08379    0.73279    0.14788   1.00
H2       0.05239    0.74556    0.10915   1.00
H2       0.09447    0.77927    -0.03656   1.00
H2       0.05261    0.80663    -0.02381   1.00
H2       0.09883    0.82189    -0.00834   1.00
H2       0.01690    0.75513    0.00956   1.00
H2       0.05264    0.72158    -0.00622   1.00
H2       0.03870    0.72362    0.04343   1.00
C4       0.75116    0.25281    0.52084   1.00
C4       0.75145    0.25215    0.47912   1.00
C3       0.77943    0.27276    0.54364   1.00
C3       0.78194    0.26831    0.45616   1.00
C3       0.72141    0.23198    0.54123   1.00
C3       0.71962    0.23451    0.45886   1.00
C2       0.74966    0.25115    0.60512   1.00
C2       0.75034    0.24885    0.39488   1.00
C3       0.77886    0.27178    0.58462   1.00
C3       0.78124    0.26704    0.41519   1.00
C3       0.72091    0.23196    0.58258   1.00
C3       0.72029    0.23206    0.41762   1.00
H1       0.80119    0.28869    0.53115   1.00
H1       0.80566    0.28126    0.46852   1.00
C5       0.69225    0.21144    0.52020   1.00
C5       0.68745    0.21911    0.47980   1.00
H1       0.80023    0.28652    0.59955   1.00
H1       0.80392    0.27950    0.40010   1.00
H1       0.69877    0.21779    0.59680   1.00
H1       0.69853    0.21716    0.40368   1.00
O3       0.66766    0.18623    0.53961   1.00
O3       0.65321    0.20906    0.46099   1.00
Si1      0.67862    0.13994    0.54247   1.00
Si1      0.62071    0.24288    0.45279   1.00
C6       0.64131    0.12657    0.57538   1.00
C6       0.67075    0.11936    0.49598   1.00
C6       0.72528    0.13125    0.56253   1.00
C6       0.63169    0.29126    0.46693   1.00
C6       0.61448    0.24095    0.40198   1.00
C6       0.57686    0.22748    0.47477   1.00
C6       0.63630    0.15362    0.61194   1.00
H2       0.61504    0.13105    0.55791   1.00
C6       0.63823    0.08379    0.59147   1.00
H2       0.64915    0.13919    0.48358   1.00
C6       0.70547    0.11876    0.46634   1.00
C6       0.65212    0.07774    0.49336   1.00
H2       0.72510    0.15004    0.58831   1.00
C6       0.73401    0.08901    0.57772   1.00
C6       0.76270    0.14248    0.53849   1.00
C6       0.64196    0.29903    0.51071   1.00
C6       0.66134    0.31579    0.44225   1.00
H2       0.60394    0.30614    0.46212   1.00
H2       0.64183    0.25253    0.39051   1.00
C6       0.61041    0.19922    0.38378   1.00
C6       0.58114    0.26634    0.38393   1.00
H2       0.56446    0.20700    0.45375   1.00
C6       0.58089    0.20373    0.51336   1.00
C6       0.54448    0.25881    0.48244   1.00
H2       0.63186    0.18403    0.60346   1.00
H2       0.66191    0.15230    0.63090   1.00
H2       0.61082    0.14514    0.62917   1.00
H2       0.60762    0.07604    0.59608   1.00
H2       0.65063    0.06224    0.57178   1.00
H2       0.65275    0.08039    0.61964   1.00
H2       0.69494    0.11323    0.43672   1.00
H2       0.72079    0.14655    0.46532   1.00
H2       0.72637    0.09582    0.47352   1.00
H2       0.62420    0.07651    0.50862   1.00
H2       0.64605    0.06963    0.46308   1.00
H2       0.67161    0.05563    0.50550   1.00
H2       0.72830    0.06726    0.55514   1.00
H2       0.76436    0.08565    0.58708   1.00
H2       0.71663    0.08213    0.60332   1.00
H2       0.77192    0.11901    0.51902   1.00
H2       0.75899    0.16832    0.52068   1.00
H2       0.78705    0.14835    0.55828   1.00
H2       0.67255    0.29297    0.51688   1.00
H2       0.63687    0.32965    0.51809   1.00
H2       0.62420    0.28165    0.53048   1.00
H2       0.66083    0.34641    0.45125   1.00
H2       0.69122    0.30565    0.44574   1.00
H2       0.65427    0.31551    0.41122   1.00
H2       0.61339    0.20058    0.35202   1.00
H2       0.63324    0.17963    0.39435   1.00
H2       0.58218    0.18604    0.39035   1.00
H2       0.58240    0.29646    0.39416   1.00
H2       0.58379    0.26721    0.35212   1.00
H2       0.55239    0.25444    0.39085   1.00
H2       0.59447    0.22073    0.53656   1.00
H2       0.55261    0.19337    0.52381   1.00
H2       0.59883    0.17811    0.50834   1.00
H2       0.51690    0.24487    0.49044   1.00
H2       0.55264    0.27842    0.50622   1.00
H2       0.53870    0.27638    0.45657   1.00
C4       0.75281    0.52084    0.25116   1.00
C4       0.75215    0.47912    0.25145   1.00
C3       0.77276    0.54364    0.27943   1.00
C3       0.76831    0.45616    0.28194   1.00
C3       0.73198    0.54123    0.22141   1.00
C3       0.73451    0.45886    0.21962   1.00
C2       0.75115    0.60512    0.24966   1.00
C2       0.74885    0.39488    0.25034   1.00
C3       0.77178    0.58462    0.27886   1.00
C3       0.76704    0.41519    0.28124   1.00
C3       0.73196    0.58258    0.22091   1.00
C3       0.73206    0.41762    0.22029   1.00
H1       0.78869    0.53115    0.30119   1.00
H1       0.78126    0.46852    0.30566   1.00
C5       0.71144    0.52020    0.19225   1.00
C5       0.71911    0.47980    0.18745   1.00
H1       0.78652    0.59955    0.30023   1.00
H1       0.77950    0.40010    0.30392   1.00
H1       0.71779    0.59680    0.19877   1.00
H1       0.71716    0.40368    0.19853   1.00
O3       0.68623    0.53961    0.16766   1.00
O3       0.70906    0.46099    0.15321   1.00
Si1      0.63994    0.54247    0.17862   1.00
Si1      0.74288    0.45279    0.12071   1.00
C6       0.62657    0.57538    0.14131   1.00
C6       0.61936    0.49598    0.17075   1.00
C6       0.63125    0.56253    0.22528   1.00
C6       0.79126    0.46693    0.13169   1.00
C6       0.74095    0.40198    0.11448   1.00
C6       0.72748    0.47477    0.07686   1.00
C6       0.65362    0.61194    0.13630   1.00
H2       0.63105    0.55791    0.11504   1.00
C6       0.58379    0.59147    0.13823   1.00
H2       0.63919    0.48358    0.14915   1.00
C6       0.61876    0.46634    0.20547   1.00
C6       0.57774    0.49336    0.15212   1.00
H2       0.65004    0.58831    0.22510   1.00
C6       0.58901    0.57772    0.23401   1.00
C6       0.64248    0.53849    0.26270   1.00
C6       0.79903    0.51071    0.14196   1.00
C6       0.81579    0.44225    0.16134   1.00
H2       0.80614    0.46212    0.10394   1.00
H2       0.75253    0.39051    0.14183   1.00
C6       0.69922    0.38378    0.11041   1.00
C6       0.76634    0.38393    0.08114   1.00
H2       0.70700    0.45375    0.06446   1.00
C6       0.70373    0.51336    0.08089   1.00
C6       0.75881    0.48244    0.04448   1.00
H2       0.68403    0.60346    0.13186   1.00
H2       0.65230    0.63090    0.16191   1.00
H2       0.64514    0.62917    0.11082   1.00
H2       0.57604    0.59608    0.10762   1.00
H2       0.56224    0.57178    0.15063   1.00
H2       0.58039    0.61964    0.15275   1.00
H2       0.61323    0.43672    0.19494   1.00
H2       0.64655    0.46532    0.22079   1.00
H2       0.59582    0.47352    0.22637   1.00
H2       0.57651    0.50862    0.12420   1.00
H2       0.56963    0.46308    0.14605   1.00
H2       0.55563    0.50550    0.17161   1.00
H2       0.56726    0.55514    0.22830   1.00
H2       0.58565    0.58708    0.26436   1.00
H2       0.58213    0.60332    0.21663   1.00
H2       0.61901    0.51902    0.27192   1.00
H2       0.66832    0.52068    0.25899   1.00
H2       0.64835    0.55828    0.28705   1.00
H2       0.79297    0.51688    0.17255   1.00
H2       0.82965    0.51809    0.13687   1.00
H2       0.78165    0.53048    0.12420   1.00
H2       0.84641    0.45125    0.16083   1.00
H2       0.80565    0.44574    0.19122   1.00
H2       0.81551    0.41122    0.15427   1.00
H2       0.70058    0.35202    0.11339   1.00
H2       0.67963    0.39435    0.13324   1.00
H2       0.68604    0.39035    0.08218   1.00
H2       0.79646    0.39416    0.08240   1.00
H2       0.76721    0.35212    0.08379   1.00
H2       0.75444    0.39085    0.05239   1.00
H2       0.72073    0.53656    0.09447   1.00
H2       0.69337    0.52381    0.05261   1.00
H2       0.67811    0.50834    0.09883   1.00
H2       0.74487    0.49044    0.01690   1.00
H2       0.77842    0.50622    0.05264   1.00
H2       0.77638    0.45657    0.03870   1.00
C4       0.47916    0.25116    0.24719   1.00
C4       0.52088    0.25145    0.24785   1.00
C3       0.45636    0.27943    0.22724   1.00
C3       0.54384    0.28194    0.23169   1.00
C3       0.45877    0.22141    0.26802   1.00
C3       0.54114    0.21962    0.26549   1.00
C2       0.39488    0.24966    0.24885   1.00
C2       0.60512    0.25034    0.25115   1.00
C3       0.41538    0.27886    0.22822   1.00
C3       0.58481    0.28124    0.23296   1.00
C3       0.41742    0.22091    0.26804   1.00
C3       0.58238    0.22029    0.26794   1.00
H1       0.46885    0.30119    0.21131   1.00
H1       0.53148    0.30566    0.21874   1.00
C5       0.47980    0.19225    0.28856   1.00
C5       0.52020    0.18745    0.28089   1.00
H1       0.40045    0.30023    0.21348   1.00
H1       0.59990    0.30392    0.22050   1.00
H1       0.40320    0.19877    0.28221   1.00
H1       0.59632    0.19853    0.28284   1.00
O3       0.46039    0.16766    0.31377   1.00
O3       0.53901    0.15321    0.29094   1.00
Si1      0.45753    0.17862    0.36006   1.00
Si1      0.54721    0.12071    0.25712   1.00
C6       0.42462    0.14131    0.37343   1.00
C6       0.50402    0.17075    0.38064   1.00
C6       0.43747    0.22528    0.36875   1.00
C6       0.53307    0.13169    0.20874   1.00
C6       0.59802    0.11448    0.25905   1.00
C6       0.52523    0.07686    0.27252   1.00
C6       0.38806    0.13630    0.34638   1.00
H2       0.44209    0.11504    0.36895   1.00
C6       0.40853    0.13823    0.41621   1.00
H2       0.51642    0.14915    0.36081   1.00
C6       0.53366    0.20547    0.38124   1.00
C6       0.50664    0.15212    0.42226   1.00
H2       0.41169    0.22510    0.34996   1.00
C6       0.42228    0.23401    0.41099   1.00
C6       0.46151    0.26270    0.35752   1.00
C6       0.48929    0.14196    0.20097   1.00
C6       0.55775    0.16134    0.18421   1.00
H2       0.53788    0.10394    0.19386   1.00
H2       0.60949    0.14183    0.24747   1.00
C6       0.61622    0.11041    0.30078   1.00
C6       0.61607    0.08114    0.23366   1.00
H2       0.54625    0.06446    0.29300   1.00
C6       0.48664    0.08089    0.29627   1.00
C6       0.51756    0.04448    0.24119   1.00
H2       0.39654    0.13186    0.31597   1.00
H2       0.36910    0.16191    0.34770   1.00
H2       0.37083    0.11082    0.35486   1.00
H2       0.40392    0.10762    0.42396   1.00
H2       0.42822    0.15063    0.43776   1.00
H2       0.38036    0.15275    0.41961   1.00
H2       0.56328    0.19494    0.38677   1.00
H2       0.53468    0.22079    0.35345   1.00
H2       0.52648    0.22637    0.40418   1.00
H2       0.49138    0.12420    0.42349   1.00
H2       0.53692    0.14605    0.43037   1.00
H2       0.49450    0.17161    0.44437   1.00
H2       0.44486    0.22830    0.43274   1.00
H2       0.41292    0.26436    0.41435   1.00
H2       0.39668    0.21663    0.41787   1.00
H2       0.48098    0.27192    0.38099   1.00
H2       0.47932    0.25899    0.33168   1.00
H2       0.44172    0.28705    0.35165   1.00
H2       0.48312    0.17255    0.20703   1.00
H2       0.48191    0.13687    0.17035   1.00
H2       0.46952    0.12420    0.21835   1.00
H2       0.54875    0.16083    0.15359   1.00
H2       0.55426    0.19122    0.19435   1.00
H2       0.58878    0.15427    0.18449   1.00
H2       0.64798    0.11339    0.29942   1.00
H2       0.60565    0.13324    0.32037   1.00
H2       0.60965    0.08218    0.31396   1.00
H2       0.60584    0.08240    0.20354   1.00
H2       0.64788    0.08379    0.23279   1.00
H2       0.60915    0.05239    0.24556   1.00
H2       0.46344    0.09447    0.27927   1.00
H2       0.47619    0.05261    0.30663   1.00
H2       0.49166    0.09883    0.32189   1.00
H2       0.50956    0.01690    0.25513   1.00
H2       0.49378    0.05264    0.22158   1.00
H2       0.54343    0.03870    0.22362   1.00
C4       1.02084    0.25116    0.25281   1.00
C4       0.97912    0.25145    0.25215   1.00
C3       1.04364    0.27943    0.27276   1.00
C3       0.95616    0.28194    0.26831   1.00
C3       1.04123    0.22141    0.23198   1.00
C3       0.95886    0.21962    0.23451   1.00
C2       1.10512    0.24966    0.25115   1.00
C2       0.89488    0.25034    0.24885   1.00
C3       1.08462    0.27886    0.27178   1.00
C3       0.91519    0.28124    0.26704   1.00
C3       1.08258    0.22091    0.23196   1.00
C3       0.91762    0.22029    0.23206   1.00
H1       1.03115    0.30119    0.28869   1.00
H1       0.96852    0.30566    0.28126   1.00
C5       1.02020    0.19225    0.21144   1.00
C5       0.97980    0.18745    0.21911   1.00
H1       1.09955    0.30023    0.28652   1.00
H1       0.90010    0.30392    0.27950   1.00
H1       1.09680    0.19877    0.21779   1.00
H1       0.90368    0.19853    0.21716   1.00
O3       1.03961    0.16766    0.18623   1.00
O3       0.96099    0.15321    0.20906   1.00
Si1      1.04247    0.17862    0.13994   1.00
Si1      0.95279    0.12071    0.24288   1.00
C6       1.07538    0.14131    0.12657   1.00
C6       0.99598    0.17075    0.11936   1.00
C6       1.06253    0.22528    0.13125   1.00
C6       0.96693    0.13169    0.29126   1.00
C6       0.90198    0.11448    0.24095   1.00
C6       0.97477    0.07686    0.22748   1.00
C6       1.11194    0.13630    0.15362   1.00
H2       1.05791    0.11504    0.13105   1.00
C6       1.09147    0.13823    0.08379   1.00
H2       0.98358    0.14915    0.13919   1.00
C6       0.96634    0.20547    0.11876   1.00
C6       0.99336    0.15212    0.07774   1.00
H2       1.08831    0.22510    0.15004   1.00
C6       1.07772    0.23401    0.08901   1.00
C6       1.03849    0.26270    0.14248   1.00
C6       1.01071    0.14196    0.29903   1.00
C6       0.94225    0.16134    0.31579   1.00
H2       0.96212    0.10394    0.30614   1.00
H2       0.89051    0.14183    0.25253   1.00
C6       0.88378    0.11041    0.19922   1.00
C6       0.88393    0.08114    0.26634   1.00
H2       0.95375    0.06446    0.20700   1.00
C6       1.01336    0.08089    0.20373   1.00
C6       0.98244    0.04448    0.25881   1.00
H2       1.10346    0.13186    0.18403   1.00
H2       1.13090    0.16191    0.15230   1.00
H2       1.12917    0.11082    0.14514   1.00
H2       1.09608    0.10762    0.07604   1.00
H2       1.07178    0.15063    0.06224   1.00
H2       1.11964    0.15275    0.08039   1.00
H2       0.93672    0.19494    0.11323   1.00
H2       0.96532    0.22079    0.14655   1.00
H2       0.97352    0.22637    0.09582   1.00
H2       1.00862    0.12420    0.07651   1.00
H2       0.96308    0.14605    0.06963   1.00
H2       1.00550    0.17161    0.05563   1.00
H2       1.05514    0.22830    0.06726   1.00
H2       1.08708    0.26436    0.08565   1.00
H2       1.10332    0.21663    0.08213   1.00
H2       1.01902    0.27192    0.11901   1.00
H2       1.02068    0.25899    0.16832   1.00
H2       1.05828    0.28705    0.14835   1.00
H2       1.01688    0.17255    0.29297   1.00
H2       1.01809    0.13687    0.32965   1.00
H2       1.03048    0.12420    0.28165   1.00
H2       0.95125    0.16083    0.34641   1.00
H2       0.94574    0.19122    0.30565   1.00
H2       0.91122    0.15427    0.31551   1.00
H2       0.85202    0.11339    0.20058   1.00
H2       0.89435    0.13324    0.17963   1.00
H2       0.89035    0.08218    0.18604   1.00
H2       0.89416    0.08240    0.29646   1.00
H2       0.85212    0.08379    0.26721   1.00
H2       0.89085    0.05239    0.25444   1.00
H2       1.03656    0.09447    0.22073   1.00
H2       1.02381    0.05261    0.19337   1.00
H2       1.00834    0.09883    0.17811   1.00
H2       0.99044    0.01690    0.24487   1.00
H2       1.00622    0.05264    0.27842   1.00
H2       0.95657    0.03870    0.27638   1.00
C4       0.74719    -0.02084   0.25116   1.00
C4       0.74785    0.02088    0.25145   1.00
C3       0.72724    -0.04364   0.27943   1.00
C3       0.73169    0.04384    0.28194   1.00
C3       0.76802    -0.04123   0.22141   1.00
C3       0.76549    0.04114    0.21962   1.00
C2       0.74885    -0.10512   0.24966   1.00
C2       0.75115    0.10512    0.25034   1.00
C3       0.72822    -0.08462   0.27886   1.00
C3       0.73296    0.08481    0.28124   1.00
C3       0.76804    -0.08258   0.22091   1.00
C3       0.76794    0.08238    0.22029   1.00
H1       0.71131    -0.03115   0.30119   1.00
H1       0.71874    0.03148    0.30566   1.00
C5       0.78856    -0.02020   0.19225   1.00
C5       0.78089    0.02020    0.18745   1.00
H1       0.71348    -0.09955   0.30023   1.00
H1       0.72050    0.09990    0.30392   1.00
H1       0.78221    -0.09680   0.19877   1.00
H1       0.78284    0.09632    0.19853   1.00
O3       0.81377    -0.03961   0.16766   1.00
O3       0.79094    0.03901    0.15321   1.00
Si1      0.86006    -0.04247   0.17862   1.00
Si1      0.75712    0.04721    0.12071   1.00
C6       0.87343    -0.07538   0.14131   1.00
C6       0.88064    0.00402    0.17075   1.00
C6       0.86875    -0.06253   0.22528   1.00
C6       0.70874    0.03307    0.13169   1.00
C6       0.75905    0.09802    0.11448   1.00
C6       0.77252    0.02523    0.07686   1.00
C6       0.84638    -0.11194   0.13630   1.00
H2       0.86895    -0.05791   0.11504   1.00
C6       0.91621    -0.09147   0.13823   1.00
H2       0.86081    0.01642    0.14915   1.00
C6       0.88124    0.03366    0.20547   1.00
C6       0.92226    0.00664    0.15212   1.00
H2       0.84996    -0.08831   0.22510   1.00
C6       0.91099    -0.07772   0.23401   1.00
C6       0.85752    -0.03849   0.26270   1.00
C6       0.70097    -0.01071   0.14196   1.00
C6       0.68421    0.05775    0.16134   1.00
H2       0.69386    0.03788    0.10394   1.00
H2       0.74747    0.10949    0.14183   1.00
C6       0.80078    0.11622    0.11041   1.00
C6       0.73366    0.11607    0.08114   1.00
H2       0.79300    0.04625    0.06446   1.00
C6       0.79627    -0.01336   0.08089   1.00
C6       0.74119    0.01756    0.04448   1.00
H2       0.81597    -0.10346   0.13186   1.00
H2       0.84770    -0.13090   0.16191   1.00
H2       0.85486    -0.12917   0.11082   1.00
H2       0.92396    -0.09608   0.10762   1.00
H2       0.93776    -0.07178   0.15063   1.00
H2       0.91961    -0.11964   0.15275   1.00
H2       0.88677    0.06328    0.19494   1.00
H2       0.85345    0.03468    0.22079   1.00
H2       0.90418    0.02648    0.22637   1.00
H2       0.92349    -0.00862   0.12420   1.00
H2       0.93037    0.03692    0.14605   1.00
H2       0.94437    -0.00550   0.17161   1.00
H2       0.93274    -0.05514   0.22830   1.00
H2       0.91435    -0.08708   0.26436   1.00
H2       0.91787    -0.10332   0.21663   1.00
H2       0.88099    -0.01902   0.27192   1.00
H2       0.83168    -0.02068   0.25899   1.00
H2       0.85165    -0.05828   0.28705   1.00
H2       0.70703    -0.01688   0.17255   1.00
H2       0.67035    -0.01809   0.13687   1.00
H2       0.71835    -0.03048   0.12420   1.00
H2       0.65359    0.04875    0.16083   1.00
H2       0.69435    0.05426    0.19122   1.00
H2       0.68449    0.08878    0.15427   1.00
H2       0.79942    0.14798    0.11339   1.00
H2       0.82037    0.10565    0.13324   1.00
H2       0.81396    0.10965    0.08218   1.00
H2       0.70354    0.10584    0.08240   1.00
H2       0.73279    0.14788    0.08379   1.00
H2       0.74556    0.10915    0.05239   1.00
H2       0.77927    -0.03656   0.09447   1.00
H2       0.80663    -0.02381   0.05261   1.00
H2       0.82189    -0.00834   0.09883   1.00
H2       0.75513    0.00956    0.01690   1.00
H2       0.72158    -0.00622   0.05264   1.00
H2       0.72362    0.04343    0.03870   1.00
C4       0.75116    0.24719    -0.02084   1.00
C4       0.75145    0.24785    0.02088   1.00
C3       0.77943    0.22724    -0.04364   1.00
C3       0.78194    0.23169    0.04384   1.00
C3       0.72141    0.26802    -0.04123   1.00
C3       0.71962    0.26549    0.04114   1.00
C2       0.74966    0.24885    -0.10512   1.00
C2       0.75034    0.25115    0.10512   1.00
C3       0.77886    0.22822    -0.08462   1.00
C3       0.78124    0.23296    0.08481   1.00
C3       0.72091    0.26804    -0.08258   1.00
C3       0.72029    0.26794    0.08238   1.00
H1       0.80119    0.21131    -0.03115   1.00
H1       0.80566    0.21874    0.03148   1.00
C5       0.69225    0.28856    -0.02020   1.00
C5       0.68745    0.28089    0.02020   1.00
H1       0.80023    0.21348    -0.09955   1.00
H1       0.80392    0.22050    0.09990   1.00
H1       0.69877    0.28221    -0.09680   1.00
H1       0.69853    0.28284    0.09632   1.00
O3       0.66766    0.31377    -0.03961   1.00
O3       0.65321    0.29094    0.03901   1.00
Si1      0.67862    0.36006    -0.04247   1.00
Si1      0.62071    0.25712    0.04721   1.00
C6       0.64131    0.37343    -0.07538   1.00
C6       0.67075    0.38064    0.00402   1.00
C6       0.72528    0.36875    -0.06253   1.00
C6       0.63169    0.20874    0.03307   1.00
C6       0.61448    0.25905    0.09802   1.00
C6       0.57686    0.27252    0.02523   1.00
C6       0.63630    0.34638    -0.11194   1.00
H2       0.61504    0.36895    -0.05791   1.00
C6       0.63823    0.41621    -0.09147   1.00
H2       0.64915    0.36081    0.01642   1.00
C6       0.70547    0.38124    0.03366   1.00
C6       0.65212    0.42226    0.00664   1.00
H2       0.72510    0.34996    -0.08831   1.00
C6       0.73401    0.41099    -0.07772   1.00
C6       0.76270    0.35752    -0.03849   1.00
C6       0.64196    0.20097    -0.01071   1.00
C6       0.66134    0.18421    0.05775   1.00
H2       0.60394    0.19386    0.03788   1.00
H2       0.64183    0.24747    0.10949   1.00
C6       0.61041    0.30078    0.11622   1.00
C6       0.58114    0.23366    0.11607   1.00
H2       0.56446    0.29300    0.04625   1.00
C6       0.58089    0.29627    -0.01336   1.00
C6       0.54448    0.24119    0.01756   1.00
H2       0.63186    0.31597    -0.10346   1.00
H2       0.66191    0.34770    -0.13090   1.00
H2       0.61082    0.35486    -0.12917   1.00
H2       0.60762    0.42396    -0.09608   1.00
H2       0.65063    0.43776    -0.07178   1.00
H2       0.65275    0.41961    -0.11964   1.00
H2       0.69494    0.38677    0.06328   1.00
H2       0.72079    0.35345    0.03468   1.00
H2       0.72637    0.40418    0.02648   1.00
H2       0.62420    0.42349    -0.00862   1.00
H2       0.64605    0.43037    0.03692   1.00
H2       0.67161    0.44437    -0.00550   1.00
H2       0.72830    0.43274    -0.05514   1.00
H2       0.76436    0.41435    -0.08708   1.00
H2       0.71663    0.41787    -0.10332   1.00
H2       0.77192    0.38099    -0.01902   1.00
H2       0.75899    0.33168    -0.02068   1.00
H2       0.78705    0.35165    -0.05828   1.00
H2       0.67255    0.20703    -0.01688   1.00
H2       0.63687    0.17035    -0.01809   1.00
H2       0.62420    0.21835    -0.03048   1.00
H2       0.66083    0.15359    0.04875   1.00
H2       0.69122    0.19435    0.05426   1.00
H2       0.65427    0.18449    0.08878   1.00
H2       0.61339    0.29942    0.14798   1.00
H2       0.63324    0.32037    0.10565   1.00
H2       0.58218    0.31396    0.10965   1.00
H2       0.58240    0.20354    0.10584   1.00
H2       0.58379    0.23279    0.14788   1.00
H2       0.55239    0.24556    0.10915   1.00
H2       0.59447    0.27927    -0.03656   1.00
H2       0.55261    0.30663    -0.02381   1.00
H2       0.59883    0.32189    -0.00834   1.00
H2       0.51690    0.25513    0.00956   1.00
H2       0.55264    0.22158    -0.00622   1.00
H2       0.53870    0.22362    0.04343   1.00
C4       0.91616    0.91781    1.18584   1.00
C4       0.91645    0.91715    1.14412   1.00
C3       0.94443    0.93776    1.20864   1.00
C3       0.94694    0.93331    1.12116   1.00
C3       0.88641    0.89698    1.20623   1.00
C3       0.88462    0.89951    1.12386   1.00
C2       0.91466    0.91615    1.27012   1.00
C2       0.91534    0.91385    1.05988   1.00
C3       0.94386    0.93678    1.24962   1.00
C3       0.94624    0.93204    1.08019   1.00
C3       0.88591    0.89696    1.24758   1.00
C3       0.88529    0.89706    1.08262   1.00
H1       0.96619    0.95369    1.19615   1.00
H1       0.97066    0.94626    1.13352   1.00
C5       0.85725    0.87644    1.18520   1.00
C5       0.85245    0.88411    1.14480   1.00
H1       0.96523    0.95152    1.26455   1.00
H1       0.96892    0.94450    1.06510   1.00
H1       0.86377    0.88279    1.26180   1.00
H1       0.86353    0.88216    1.06868   1.00
O3       0.83266    0.85123    1.20461   1.00
O3       0.81821    0.87406    1.12599   1.00
Si1      0.84362    0.80494    1.20747   1.00
Si1      0.78571    0.90788    1.11779   1.00
C6       0.80631    0.79157    1.24038   1.00
C6       0.83575    0.78436    1.16098   1.00
C6       0.89028    0.79625    1.22753   1.00
C6       0.79669    0.95626    1.13193   1.00
C6       0.77948    0.90595    1.06698   1.00
C6       0.74186    0.89248    1.13977   1.00
C6       0.80130    0.81862    1.27694   1.00
H2       0.78004    0.79605    1.22291   1.00
C6       0.80323    0.74879    1.25647   1.00
H2       0.81415    0.80419    1.14858   1.00
C6       0.87047    0.78376    1.13134   1.00
C6       0.81712    0.74274    1.15836   1.00
H2       0.89010    0.81504    1.25331   1.00
C6       0.89901    0.75401    1.24272   1.00
C6       0.92770    0.80748    1.20349   1.00
C6       0.80696    0.96403    1.17571   1.00
C6       0.82634    0.98079    1.10725   1.00
H2       0.76894    0.97114    1.12712   1.00
H2       0.80683    0.91753    1.05551   1.00
C6       0.77541    0.86422    1.04878   1.00
C6       0.74614    0.93134    1.04893   1.00
H2       0.72946    0.87200    1.11875   1.00
C6       0.74589    0.86873    1.17836   1.00
C6       0.70948    0.92381    1.14744   1.00
H2       0.79686    0.84903    1.26846   1.00
H2       0.82691    0.81730    1.29590   1.00
H2       0.77582    0.81014    1.29417   1.00
H2       0.77262    0.74104    1.26108   1.00
H2       0.81563    0.72724    1.23678   1.00
H2       0.81775    0.74539    1.28464   1.00
H2       0.85994    0.77823    1.10172   1.00
H2       0.88579    0.81155    1.13032   1.00
H2       0.89137    0.76082    1.13852   1.00
H2       0.78920    0.74151    1.17362   1.00
H2       0.81105    0.73463    1.12808   1.00
H2       0.83661    0.72063    1.17050   1.00
H2       0.89330    0.73226    1.22014   1.00
H2       0.92936    0.75065    1.25208   1.00
H2       0.88163    0.74713    1.26832   1.00
H2       0.93692    0.78401    1.18402   1.00
H2       0.92399    0.83332    1.18568   1.00
H2       0.95205    0.81335    1.22328   1.00
H2       0.83755    0.95797    1.18188   1.00
H2       0.80187    0.99465    1.18309   1.00
H2       0.78920    0.94665    1.19548   1.00
H2       0.82583    1.01141    1.11625   1.00
H2       0.85622    0.97065    1.11074   1.00
H2       0.81927    0.98051    1.07622   1.00
H2       0.77839    0.86558    1.01702   1.00
H2       0.79824    0.84463    1.05935   1.00
H2       0.74718    0.85104    1.05535   1.00
H2       0.74740    0.96146    1.05916   1.00
H2       0.74879    0.93221    1.01712   1.00
H2       0.71739    0.91944    1.05585   1.00
H2       0.75947    0.88573    1.20156   1.00
H2       0.71761    0.85837    1.18881   1.00
H2       0.76383    0.84311    1.17334   1.00
H2       0.68190    0.90987    1.15544   1.00
H2       0.71764    0.94342    1.17122   1.00
H2       0.70370    0.94138    1.12157   1.00
C4       0.91781    1.18584    0.91616   1.00
C4       0.91715    1.14412    0.91645   1.00
C3       0.93776    1.20864    0.94443   1.00
C3       0.93331    1.12116    0.94694   1.00
C3       0.89698    1.20623    0.88641   1.00
C3       0.89951    1.12386    0.88462   1.00
C2       0.91615    1.27012    0.91466   1.00
C2       0.91385    1.05988    0.91534   1.00
C3       0.93678    1.24962    0.94386   1.00
C3       0.93204    1.08019    0.94624   1.00
C3       0.89696    1.24758    0.88591   1.00
C3       0.89706    1.08262    0.88529   1.00
H1       0.95369    1.19615    0.96619   1.00
H1       0.94626    1.13352    0.97066   1.00
C5       0.87644    1.18520    0.85725   1.00
C5       0.88411    1.14480    0.85245   1.00
H1       0.95152    1.26455    0.96523   1.00
H1       0.94450    1.06510    0.96892   1.00
H1       0.88279    1.26180    0.86377   1.00
H1       0.88216    1.06868    0.86353   1.00
O3       0.85123    1.20461    0.83266   1.00
O3       0.87406    1.12599    0.81821   1.00
Si1      0.80494    1.20747    0.84362   1.00
Si1      0.90788    1.11779    0.78571   1.00
C6       0.79157    1.24038    0.80631   1.00
C6       0.78436    1.16098    0.83575   1.00
C6       0.79625    1.22753    0.89028   1.00
C6       0.95626    1.13193    0.79669   1.00
C6       0.90595    1.06698    0.77948   1.00
C6       0.89248    1.13977    0.74186   1.00
C6       0.81862    1.27694    0.80130   1.00
H2       0.79605    1.22291    0.78004   1.00
C6       0.74879    1.25647    0.80323   1.00
H2       0.80419    1.14858    0.81415   1.00
C6       0.78376    1.13134    0.87047   1.00
C6       0.74274    1.15836    0.81712   1.00
H2       0.81504    1.25331    0.89010   1.00
C6       0.75401    1.24272    0.89901   1.00
C6       0.80748    1.20349    0.92770   1.00
C6       0.96403    1.17571    0.80696   1.00
C6       0.98079    1.10725    0.82634   1.00
H2       0.97114    1.12712    0.76894   1.00
H2       0.91753    1.05551    0.80683   1.00
C6       0.86422    1.04878    0.77541   1.00
C6       0.93134    1.04893    0.74614   1.00
H2       0.87200    1.11875    0.72946   1.00
C6       0.86873    1.17836    0.74589   1.00
C6       0.92381    1.14744    0.70948   1.00
H2       0.84903    1.26846    0.79686   1.00
H2       0.81730    1.29590    0.82691   1.00
H2       0.81014    1.29417    0.77582   1.00
H2       0.74104    1.26108    0.77262   1.00
H2       0.72724    1.23678    0.81563   1.00
H2       0.74539    1.28464    0.81775   1.00
H2       0.77823    1.10172    0.85994   1.00
H2       0.81155    1.13032    0.88579   1.00
H2       0.76082    1.13852    0.89137   1.00
H2       0.74151    1.17362    0.78920   1.00
H2       0.73463    1.12808    0.81105   1.00
H2       0.72063    1.17050    0.83661   1.00
H2       0.73226    1.22014    0.89330   1.00
H2       0.75065    1.25208    0.92936   1.00
H2       0.74713    1.26832    0.88163   1.00
H2       0.78401    1.18402    0.93692   1.00
H2       0.83332    1.18568    0.92399   1.00
H2       0.81335    1.22328    0.95205   1.00
H2       0.95797    1.18188    0.83755   1.00
H2       0.99465    1.18309    0.80187   1.00
H2       0.94665    1.19548    0.78920   1.00
H2       1.01141    1.11625    0.82583   1.00
H2       0.97065    1.11074    0.85622   1.00
H2       0.98051    1.07622    0.81927   1.00
H2       0.86558    1.01702    0.77839   1.00
H2       0.84463    1.05935    0.79824   1.00
H2       0.85104    1.05535    0.74718   1.00
H2       0.96146    1.05916    0.74740   1.00
H2       0.93221    1.01712    0.74879   1.00
H2       0.91944    1.05585    0.71739   1.00
H2       0.88573    1.20156    0.75947   1.00
H2       0.85837    1.18881    0.71761   1.00
H2       0.84311    1.17334    0.76383   1.00
H2       0.90987    1.15544    0.68190   1.00
H2       0.94342    1.17122    0.71764   1.00
H2       0.94138    1.12157    0.70370   1.00
C4       0.64416    0.91616    0.91219   1.00
C4       0.68588    0.91645    0.91285   1.00
C3       0.62136    0.94443    0.89224   1.00
C3       0.70884    0.94694    0.89669   1.00
C3       0.62377    0.88641    0.93302   1.00
C3       0.70614    0.88462    0.93049   1.00
C2       0.55988    0.91466    0.91385   1.00
C2       0.77012    0.91534    0.91615   1.00
C3       0.58038    0.94386    0.89322   1.00
C3       0.74981    0.94624    0.89796   1.00
C3       0.58242    0.88591    0.93304   1.00
C3       0.74738    0.88529    0.93294   1.00
H1       0.63385    0.96619    0.87631   1.00
H1       0.69648    0.97066    0.88374   1.00
C5       0.64480    0.85725    0.95356   1.00
C5       0.68520    0.85245    0.94589   1.00
H1       0.56545    0.96523    0.87848   1.00
H1       0.76490    0.96892    0.88550   1.00
H1       0.56820    0.86377    0.94721   1.00
H1       0.76132    0.86353    0.94784   1.00
O3       0.62539    0.83266    0.97877   1.00
O3       0.70401    0.81821    0.95594   1.00
Si1      0.62253    0.84362    1.02506   1.00
Si1      0.71221    0.78571    0.92212   1.00
C6       0.58962    0.80631    1.03843   1.00
C6       0.66902    0.83575    1.04564   1.00
C6       0.60247    0.89028    1.03375   1.00
C6       0.69807    0.79669    0.87374   1.00
C6       0.76302    0.77948    0.92405   1.00
C6       0.69023    0.74186    0.93752   1.00
C6       0.55306    0.80130    1.01138   1.00
H2       0.60709    0.78004    1.03395   1.00
C6       0.57353    0.80323    1.08121   1.00
H2       0.68142    0.81415    1.02581   1.00
C6       0.69866    0.87047    1.04624   1.00
C6       0.67164    0.81712    1.08726   1.00
H2       0.57669    0.89010    1.01496   1.00
C6       0.58728    0.89901    1.07599   1.00
C6       0.62651    0.92770    1.02252   1.00
C6       0.65429    0.80696    0.86597   1.00
C6       0.72275    0.82634    0.84921   1.00
H2       0.70288    0.76894    0.85886   1.00
H2       0.77449    0.80683    0.91247   1.00
C6       0.78122    0.77541    0.96578   1.00
C6       0.78107    0.74614    0.89866   1.00
H2       0.71125    0.72946    0.95800   1.00
C6       0.65164    0.74589    0.96127   1.00
C6       0.68256    0.70948    0.90619   1.00
H2       0.56154    0.79686    0.98097   1.00
H2       0.53410    0.82691    1.01270   1.00
H2       0.53583    0.77582    1.01986   1.00
H2       0.56892    0.77262    1.08896   1.00
H2       0.59322    0.81563    1.10276   1.00
H2       0.54536    0.81775    1.08461   1.00
H2       0.72828    0.85994    1.05177   1.00
H2       0.69968    0.88579    1.01845   1.00
H2       0.69148    0.89137    1.06918   1.00
H2       0.65638    0.78920    1.08849   1.00
H2       0.70192    0.81105    1.09537   1.00
H2       0.65950    0.83661    1.10937   1.00
H2       0.60986    0.89330    1.09774   1.00
H2       0.57792    0.92936    1.07935   1.00
H2       0.56168    0.88163    1.08287   1.00
H2       0.64598    0.93692    1.04599   1.00
H2       0.64432    0.92399    0.99668   1.00
H2       0.60672    0.95205    1.01665   1.00
H2       0.64812    0.83755    0.87203   1.00
H2       0.64691    0.80187    0.83535   1.00
H2       0.63452    0.78920    0.88335   1.00
H2       0.71375    0.82583    0.81859   1.00
H2       0.71926    0.85622    0.85935   1.00
H2       0.75378    0.81927    0.84949   1.00
H2       0.81298    0.77839    0.96442   1.00
H2       0.77065    0.79824    0.98537   1.00
H2       0.77465    0.74718    0.97896   1.00
H2       0.77084    0.74740    0.86854   1.00
H2       0.81288    0.74879    0.89779   1.00
H2       0.77415    0.71739    0.91056   1.00
H2       0.62844    0.75947    0.94427   1.00
H2       0.64119    0.71761    0.97163   1.00
H2       0.65666    0.76383    0.98689   1.00
H2       0.67456    0.68190    0.92013   1.00
H2       0.65878    0.71764    0.88658   1.00
H2       0.70843    0.70370    0.88862   1.00
C4       1.18584    0.91616    0.91781   1.00
C4       1.14412    0.91645    0.91715   1.00
C3       1.20864    0.94443    0.93776   1.00
C3       1.12116    0.94694    0.93331   1.00
C3       1.20623    0.88641    0.89698   1.00
C3       1.12386    0.88462    0.89951   1.00
C2       1.27012    0.91466    0.91615   1.00
C2       1.05988    0.91534    0.91385   1.00
C3       1.24962    0.94386    0.93678   1.00
C3       1.08019    0.94624    0.93204   1.00
C3       1.24758    0.88591    0.89696   1.00
C3       1.08262    0.88529    0.89706   1.00
H1       1.19615    0.96619    0.95369   1.00
H1       1.13352    0.97066    0.94626   1.00
C5       1.18520    0.85725    0.87644   1.00
C5       1.14480    0.85245    0.88411   1.00
H1       1.26455    0.96523    0.95152   1.00
H1       1.06510    0.96892    0.94450   1.00
H1       1.26180    0.86377    0.88279   1.00
H1       1.06868    0.86353    0.88216   1.00
O3       1.20461    0.83266    0.85123   1.00
O3       1.12599    0.81821    0.87406   1.00
Si1      1.20747    0.84362    0.80494   1.00
Si1      1.11779    0.78571    0.90788   1.00
C6       1.24038    0.80631    0.79157   1.00
C6       1.16098    0.83575    0.78436   1.00
C6       1.22753    0.89028    0.79625   1.00
C6       1.13193    0.79669    0.95626   1.00
C6       1.06698    0.77948    0.90595   1.00
C6       1.13977    0.74186    0.89248   1.00
C6       1.27694    0.80130    0.81862   1.00
H2       1.22291    0.78004    0.79605   1.00
C6       1.25647    0.80323    0.74879   1.00
H2       1.14858    0.81415    0.80419   1.00
C6       1.13134    0.87047    0.78376   1.00
C6       1.15836    0.81712    0.74274   1.00
H2       1.25331    0.89010    0.81504   1.00
C6       1.24272    0.89901    0.75401   1.00
C6       1.20349    0.92770    0.80748   1.00
C6       1.17571    0.80696    0.96403   1.00
C6       1.10725    0.82634    0.98079   1.00
H2       1.12712    0.76894    0.97114   1.00
H2       1.05551    0.80683    0.91753   1.00
C6       1.04878    0.77541    0.86422   1.00
C6       1.04893    0.74614    0.93134   1.00
H2       1.11875    0.72946    0.87200   1.00
C6       1.17836    0.74589    0.86873   1.00
C6       1.14744    0.70948    0.92381   1.00
H2       1.26846    0.79686    0.84903   1.00
H2       1.29590    0.82691    0.81730   1.00
H2       1.29417    0.77582    0.81014   1.00
H2       1.26108    0.77262    0.74104   1.00
H2       1.23678    0.81563    0.72724   1.00
H2       1.28464    0.81775    0.74539   1.00
H2       1.10172    0.85994    0.77823   1.00
H2       1.13032    0.88579    0.81155   1.00
H2       1.13852    0.89137    0.76082   1.00
H2       1.17362    0.78920    0.74151   1.00
H2       1.12808    0.81105    0.73463   1.00
H2       1.17050    0.83661    0.72063   1.00
H2       1.22014    0.89330    0.73226   1.00
H2       1.25208    0.92936    0.75065   1.00
H2       1.26832    0.88163    0.74713   1.00
H2       1.18402    0.93692    0.78401   1.00
H2       1.18568    0.92399    0.83332   1.00
H2       1.22328    0.95205    0.81335   1.00
H2       1.18188    0.83755    0.95797   1.00
H2       1.18309    0.80187    0.99465   1.00
H2       1.19548    0.78920    0.94665   1.00
H2       1.11625    0.82583    1.01141   1.00
H2       1.11074    0.85622    0.97065   1.00
H2       1.07622    0.81927    0.98051   1.00
H2       1.01702    0.77839    0.86558   1.00
H2       1.05935    0.79824    0.84463   1.00
H2       1.05535    0.74718    0.85104   1.00
H2       1.05916    0.74740    0.96146   1.00
H2       1.01712    0.74879    0.93221   1.00
H2       1.05585    0.71739    0.91944   1.00
H2       1.20156    0.75947    0.88573   1.00
H2       1.18881    0.71761    0.85837   1.00
H2       1.17334    0.76383    0.84311   1.00
H2       1.15544    0.68190    0.90987   1.00
H2       1.17122    0.71764    0.94342   1.00
H2       1.12157    0.70370    0.94138   1.00
C4       0.91219    0.64416    0.91616   1.00
C4       0.91285    0.68588    0.91645   1.00
C3       0.89224    0.62136    0.94443   1.00
C3       0.89669    0.70884    0.94694   1.00
C3       0.93302    0.62377    0.88641   1.00
C3       0.93049    0.70614    0.88462   1.00
C2       0.91385    0.55988    0.91466   1.00
C2       0.91615    0.77012    0.91534   1.00
C3       0.89322    0.58038    0.94386   1.00
C3       0.89796    0.74981    0.94624   1.00
C3       0.93304    0.58242    0.88591   1.00
C3       0.93294    0.74738    0.88529   1.00
H1       0.87631    0.63385    0.96619   1.00
H1       0.88374    0.69648    0.97066   1.00
C5       0.95356    0.64480    0.85725   1.00
C5       0.94589    0.68520    0.85245   1.00
H1       0.87848    0.56545    0.96523   1.00
H1       0.88550    0.76490    0.96892   1.00
H1       0.94721    0.56820    0.86377   1.00
H1       0.94784    0.76132    0.86353   1.00
O3       0.97877    0.62539    0.83266   1.00
O3       0.95594    0.70401    0.81821   1.00
Si1      1.02506    0.62253    0.84362   1.00
Si1      0.92212    0.71221    0.78571   1.00
C6       1.03843    0.58962    0.80631   1.00
C6       1.04564    0.66902    0.83575   1.00
C6       1.03375    0.60247    0.89028   1.00
C6       0.87374    0.69807    0.79669   1.00
C6       0.92405    0.76302    0.77948   1.00
C6       0.93752    0.69023    0.74186   1.00
C6       1.01138    0.55306    0.80130   1.00
H2       1.03395    0.60709    0.78004   1.00
C6       1.08121    0.57353    0.80323   1.00
H2       1.02581    0.68142    0.81415   1.00
C6       1.04624    0.69866    0.87047   1.00
C6       1.08726    0.67164    0.81712   1.00
H2       1.01496    0.57669    0.89010   1.00
C6       1.07599    0.58728    0.89901   1.00
C6       1.02252    0.62651    0.92770   1.00
C6       0.86597    0.65429    0.80696   1.00
C6       0.84921    0.72275    0.82634   1.00
H2       0.85886    0.70288    0.76894   1.00
H2       0.91247    0.77449    0.80683   1.00
C6       0.96578    0.78122    0.77541   1.00
C6       0.89866    0.78107    0.74614   1.00
H2       0.95800    0.71125    0.72946   1.00
C6       0.96127    0.65164    0.74589   1.00
C6       0.90619    0.68256    0.70948   1.00
H2       0.98097    0.56154    0.79686   1.00
H2       1.01270    0.53410    0.82691   1.00
H2       1.01986    0.53583    0.77582   1.00
H2       1.08896    0.56892    0.77262   1.00
H2       1.10276    0.59322    0.81563   1.00
H2       1.08461    0.54536    0.81775   1.00
H2       1.05177    0.72828    0.85994   1.00
H2       1.01845    0.69968    0.88579   1.00
H2       1.06918    0.69148    0.89137   1.00
H2       1.08849    0.65638    0.78920   1.00
H2       1.09537    0.70192    0.81105   1.00
H2       1.10937    0.65950    0.83661   1.00
H2       1.09774    0.60986    0.89330   1.00
H2       1.07935    0.57792    0.92936   1.00
H2       1.08287    0.56168    0.88163   1.00
H2       1.04599    0.64598    0.93692   1.00
H2       0.99668    0.64432    0.92399   1.00
H2       1.01665    0.60672    0.95205   1.00
H2       0.87203    0.64812    0.83755   1.00
H2       0.83535    0.64691    0.80187   1.00
H2       0.88335    0.63452    0.78920   1.00
H2       0.81859    0.71375    0.82583   1.00
H2       0.85935    0.71926    0.85622   1.00
H2       0.84949    0.75378    0.81927   1.00
H2       0.96442    0.81298    0.77839   1.00
H2       0.98537    0.77065    0.79824   1.00
H2       0.97896    0.77465    0.74718   1.00
H2       0.86854    0.77084    0.74740   1.00
H2       0.89779    0.81288    0.74879   1.00
H2       0.91056    0.77415    0.71739   1.00
H2       0.94427    0.62844    0.75947   1.00
H2       0.97163    0.64119    0.71761   1.00
H2       0.98689    0.65666    0.76383   1.00
H2       0.92013    0.67456    0.68190   1.00
H2       0.88658    0.65878    0.71764   1.00
H2       0.88862    0.70843    0.70370   1.00
C4       0.91616    0.91219    0.64416   1.00
C4       0.91645    0.91285    0.68588   1.00
C3       0.94443    0.89224    0.62136   1.00
C3       0.94694    0.89669    0.70884   1.00
C3       0.88641    0.93302    0.62377   1.00
C3       0.88462    0.93049    0.70614   1.00
C2       0.91466    0.91385    0.55988   1.00
C2       0.91534    0.91615    0.77012   1.00
C3       0.94386    0.89322    0.58038   1.00
C3       0.94624    0.89796    0.74981   1.00
C3       0.88591    0.93304    0.58242   1.00
C3       0.88529    0.93294    0.74738   1.00
H1       0.96619    0.87631    0.63385   1.00
H1       0.97066    0.88374    0.69648   1.00
C5       0.85725    0.95356    0.64480   1.00
C5       0.85245    0.94589    0.68520   1.00
H1       0.96523    0.87848    0.56545   1.00
H1       0.96892    0.88550    0.76490   1.00
H1       0.86377    0.94721    0.56820   1.00
H1       0.86353    0.94784    0.76132   1.00
O3       0.83266    0.97877    0.62539   1.00
O3       0.81821    0.95594    0.70401   1.00
Si1      0.84362    1.02506    0.62253   1.00
Si1      0.78571    0.92212    0.71221   1.00
C6       0.80631    1.03843    0.58962   1.00
C6       0.83575    1.04564    0.66902   1.00
C6       0.89028    1.03375    0.60247   1.00
C6       0.79669    0.87374    0.69807   1.00
C6       0.77948    0.92405    0.76302   1.00
C6       0.74186    0.93752    0.69023   1.00
C6       0.80130    1.01138    0.55306   1.00
H2       0.78004    1.03395    0.60709   1.00
C6       0.80323    1.08121    0.57353   1.00
H2       0.81415    1.02581    0.68142   1.00
C6       0.87047    1.04624    0.69866   1.00
C6       0.81712    1.08726    0.67164   1.00
H2       0.89010    1.01496    0.57669   1.00
C6       0.89901    1.07599    0.58728   1.00
C6       0.92770    1.02252    0.62651   1.00
C6       0.80696    0.86597    0.65429   1.00
C6       0.82634    0.84921    0.72275   1.00
H2       0.76894    0.85886    0.70288   1.00
H2       0.80683    0.91247    0.77449   1.00
C6       0.77541    0.96578    0.78122   1.00
C6       0.74614    0.89866    0.78107   1.00
H2       0.72946    0.95800    0.71125   1.00
C6       0.74589    0.96127    0.65164   1.00
C6       0.70948    0.90619    0.68256   1.00
H2       0.79686    0.98097    0.56154   1.00
H2       0.82691    1.01270    0.53410   1.00
H2       0.77582    1.01986    0.53583   1.00
H2       0.77262    1.08896    0.56892   1.00
H2       0.81563    1.10276    0.59322   1.00
H2       0.81775    1.08461    0.54536   1.00
H2       0.85994    1.05177    0.72828   1.00
H2       0.88579    1.01845    0.69968   1.00
H2       0.89137    1.06918    0.69148   1.00
H2       0.78920    1.08849    0.65638   1.00
H2       0.81105    1.09537    0.70192   1.00
H2       0.83661    1.10937    0.65950   1.00
H2       0.89330    1.09774    0.60986   1.00
H2       0.92936    1.07935    0.57792   1.00
H2       0.88163    1.08287    0.56168   1.00
H2       0.93692    1.04599    0.64598   1.00
H2       0.92399    0.99668    0.64432   1.00
H2       0.95205    1.01665    0.60672   1.00
H2       0.83755    0.87203    0.64812   1.00
H2       0.80187    0.83535    0.64691   1.00
H2       0.78920    0.88335    0.63452   1.00
H2       0.82583    0.81859    0.71375   1.00
H2       0.85622    0.85935    0.71926   1.00
H2       0.81927    0.84949    0.75378   1.00
H2       0.77839    0.96442    0.81298   1.00
H2       0.79824    0.98537    0.77065   1.00
H2       0.74718    0.97896    0.77465   1.00
H2       0.74740    0.86854    0.77084   1.00
H2       0.74879    0.89779    0.81288   1.00
H2       0.71739    0.91056    0.77415   1.00
H2       0.75947    0.94427    0.62844   1.00
H2       0.71761    0.97163    0.64119   1.00
H2       0.76383    0.98689    0.65666   1.00
H2       0.68190    0.92013    0.67456   1.00
H2       0.71764    0.88658    0.65878   1.00
H2       0.70370    0.88862    0.70843   1.00
C4       0.41616    0.41781    1.18584   1.00
C4       0.41645    0.41715    1.14412   1.00
C3       0.44443    0.43776    1.20864   1.00
C3       0.44694    0.43331    1.12116   1.00
C3       0.38641    0.39698    1.20623   1.00
C3       0.38462    0.39951    1.12386   1.00
C2       0.41466    0.41615    1.27012   1.00
C2       0.41534    0.41385    1.05988   1.00
C3       0.44386    0.43678    1.24962   1.00
C3       0.44624    0.43204    1.08019   1.00
C3       0.38591    0.39696    1.24758   1.00
C3       0.38529    0.39706    1.08262   1.00
H1       0.46619    0.45369    1.19615   1.00
H1       0.47066    0.44626    1.13352   1.00
C5       0.35725    0.37644    1.18520   1.00
C5       0.35245    0.38411    1.14480   1.00
H1       0.46523    0.45152    1.26455   1.00
H1       0.46892    0.44450    1.06510   1.00
H1       0.36377    0.38279    1.26180   1.00
H1       0.36353    0.38216    1.06868   1.00
O3       0.33266    0.35123    1.20461   1.00
O3       0.31821    0.37406    1.12599   1.00
Si1      0.34362    0.30494    1.20747   1.00
Si1      0.28571    0.40788    1.11779   1.00
C6       0.30631    0.29157    1.24038   1.00
C6       0.33575    0.28436    1.16098   1.00
C6       0.39028    0.29625    1.22753   1.00
C6       0.29669    0.45626    1.13193   1.00
C6       0.27948    0.40595    1.06698   1.00
C6       0.24186    0.39248    1.13977   1.00
C6       0.30130    0.31862    1.27694   1.00
H2       0.28004    0.29605    1.22291   1.00
C6       0.30323    0.24879    1.25647   1.00
H2       0.31415    0.30419    1.14858   1.00
C6       0.37047    0.28376    1.13134   1.00
C6       0.31712    0.24274    1.15836   1.00
H2       0.39010    0.31504    1.25331   1.00
C6       0.39901    0.25401    1.24272   1.00
C6       0.42770    0.30748    1.20349   1.00
C6       0.30696    0.46403    1.17571   1.00
C6       0.32634    0.48079    1.10725   1.00
H2       0.26894    0.47114    1.12712   1.00
H2       0.30683    0.41753    1.05551   1.00
C6       0.27541    0.36422    1.04878   1.00
C6       0.24614    0.43134    1.04893   1.00
H2       0.22946    0.37200    1.11875   1.00
C6       0.24589    0.36873    1.17836   1.00
C6       0.20948    0.42381    1.14744   1.00
H2       0.29686    0.34903    1.26846   1.00
H2       0.32691    0.31730    1.29590   1.00
H2       0.27582    0.31014    1.29417   1.00
H2       0.27262    0.24104    1.26108   1.00
H2       0.31563    0.22724    1.23678   1.00
H2       0.31775    0.24539    1.28464   1.00
H2       0.35994    0.27823    1.10172   1.00
H2       0.38579    0.31155    1.13032   1.00
H2       0.39137    0.26082    1.13852   1.00
H2       0.28920    0.24151    1.17362   1.00
H2       0.31105    0.23463    1.12808   1.00
H2       0.33661    0.22063    1.17050   1.00
H2       0.39330    0.23226    1.22014   1.00
H2       0.42936    0.25065    1.25208   1.00
H2       0.38163    0.24713    1.26832   1.00
H2       0.43692    0.28401    1.18402   1.00
H2       0.42399    0.33332    1.18568   1.00
H2       0.45205    0.31335    1.22328   1.00
H2       0.33755    0.45797    1.18188   1.00
H2       0.30187    0.49465    1.18309   1.00
H2       0.28920    0.44665    1.19548   1.00
H2       0.32583    0.51141    1.11625   1.00
H2       0.35622    0.47065    1.11074   1.00
H2       0.31927    0.48051    1.07622   1.00
H2       0.27839    0.36558    1.01702   1.00
H2       0.29824    0.34463    1.05935   1.00
H2       0.24718    0.35104    1.05535   1.00
H2       0.24740    0.46146    1.05916   1.00
H2       0.24879    0.43221    1.01712   1.00
H2       0.21739    0.41944    1.05585   1.00
H2       0.25947    0.38573    1.20156   1.00
H2       0.21761    0.35837    1.18881   1.00
H2       0.26383    0.34311    1.17334   1.00
H2       0.18190    0.40987    1.15544   1.00
H2       0.21764    0.44342    1.17122   1.00
H2       0.20370    0.44138    1.12157   1.00
C4       0.41781    0.68584    0.91616   1.00
C4       0.41715    0.64412    0.91645   1.00
C3       0.43776    0.70864    0.94443   1.00
C3       0.43331    0.62116    0.94694   1.00
C3       0.39698    0.70623    0.88641   1.00
C3       0.39951    0.62386    0.88462   1.00
C2       0.41615    0.77012    0.91466   1.00
C2       0.41385    0.55988    0.91534   1.00
C3       0.43678    0.74962    0.94386   1.00
C3       0.43204    0.58019    0.94624   1.00
C3       0.39696    0.74758    0.88591   1.00
C3       0.39706    0.58262    0.88529   1.00
H1       0.45369    0.69615    0.96619   1.00
H1       0.44626    0.63352    0.97066   1.00
C5       0.37644    0.68520    0.85725   1.00
C5       0.38411    0.64480    0.85245   1.00
H1       0.45152    0.76455    0.96523   1.00
H1       0.44450    0.56510    0.96892   1.00
H1       0.38279    0.76180    0.86377   1.00
H1       0.38216    0.56868    0.86353   1.00
O3       0.35123    0.70461    0.83266   1.00
O3       0.37406    0.62599    0.81821   1.00
Si1      0.30494    0.70747    0.84362   1.00
Si1      0.40788    0.61779    0.78571   1.00
C6       0.29157    0.74038    0.80631   1.00
C6       0.28436    0.66098    0.83575   1.00
C6       0.29625    0.72753    0.89028   1.00
C6       0.45626    0.63193    0.79669   1.00
C6       0.40595    0.56698    0.77948   1.00
C6       0.39248    0.63977    0.74186   1.00
C6       0.31862    0.77694    0.80130   1.00
H2       0.29605    0.72291    0.78004   1.00
C6       0.24879    0.75647    0.80323   1.00
H2       0.30419    0.64858    0.81415   1.00
C6       0.28376    0.63134    0.87047   1.00
C6       0.24274    0.65836    0.81712   1.00
H2       0.31504    0.75331    0.89010   1.00
C6       0.25401    0.74272    0.89901   1.00
C6       0.30748    0.70349    0.92770   1.00
C6       0.46403    0.67571    0.80696   1.00
C6       0.48079    0.60725    0.82634   1.00
H2       0.47114    0.62712    0.76894   1.00
H2       0.41753    0.55551    0.80683   1.00
C6       0.36422    0.54878    0.77541   1.00
C6       0.43134    0.54893    0.74614   1.00
H2       0.37200    0.61875    0.72946   1.00
C6       0.36873    0.67836    0.74589   1.00
C6       0.42381    0.64744    0.70948   1.00
H2       0.34903    0.76846    0.79686   1.00
H2       0.31730    0.79590    0.82691   1.00
H2       0.31014    0.79417    0.77582   1.00
H2       0.24104    0.76108    0.77262   1.00
H2       0.22724    0.73678    0.81563   1.00
H2       0.24539    0.78464    0.81775   1.00
H2       0.27823    0.60172    0.85994   1.00
H2       0.31155    0.63032    0.88579   1.00
H2       0.26082    0.63852    0.89137   1.00
H2       0.24151    0.67362    0.78920   1.00
H2       0.23463    0.62808    0.81105   1.00
H2       0.22063    0.67050    0.83661   1.00
H2       0.23226    0.72014    0.89330   1.00
H2       0.25065    0.75208    0.92936   1.00
H2       0.24713    0.76832    0.88163   1.00
H2       0.28401    0.68402    0.93692   1.00
H2       0.33332    0.68568    0.92399   1.00
H2       0.31335    0.72328    0.95205   1.00
H2       0.45797    0.68188    0.83755   1.00
H2       0.49465    0.68309    0.80187   1.00
H2       0.44665    0.69548    0.78920   1.00
H2       0.51141    0.61625    0.82583   1.00
H2       0.47065    0.61074    0.85622   1.00
H2       0.48051    0.57622    0.81927   1.00
H2       0.36558    0.51702    0.77839   1.00
H2       0.34463    0.55935    0.79824   1.00
H2       0.35104    0.55535    0.74718   1.00
H2       0.46146    0.55916    0.74740   1.00
H2       0.43221    0.51712    0.74879   1.00
H2       0.41944    0.55585    0.71739   1.00
H2       0.38573    0.70156    0.75947   1.00
H2       0.35837    0.68881    0.71761   1.00
H2       0.34311    0.67334    0.76383   1.00
H2       0.40987    0.65544    0.68190   1.00
H2       0.44342    0.67122    0.71764   1.00
H2       0.44138    0.62157    0.70370   1.00
C4       0.14416    0.41616    0.91219   1.00
C4       0.18588    0.41645    0.91285   1.00
C3       0.12136    0.44443    0.89224   1.00
C3       0.20884    0.44694    0.89669   1.00
C3       0.12377    0.38641    0.93302   1.00
C3       0.20614    0.38462    0.93049   1.00
C2       0.05988    0.41466    0.91385   1.00
C2       0.27012    0.41534    0.91615   1.00
C3       0.08038    0.44386    0.89322   1.00
C3       0.24981    0.44624    0.89796   1.00
C3       0.08242    0.38591    0.93304   1.00
C3       0.24738    0.38529    0.93294   1.00
H1       0.13385    0.46619    0.87631   1.00
H1       0.19648    0.47066    0.88374   1.00
C5       0.14480    0.35725    0.95356   1.00
C5       0.18520    0.35245    0.94589   1.00
H1       0.06545    0.46523    0.87848   1.00
H1       0.26490    0.46892    0.88550   1.00
H1       0.06820    0.36377    0.94721   1.00
H1       0.26132    0.36353    0.94784   1.00
O3       0.12539    0.33266    0.97877   1.00
O3       0.20401    0.31821    0.95594   1.00
Si1      0.12253    0.34362    1.02506   1.00
Si1      0.21221    0.28571    0.92212   1.00
C6       0.08962    0.30631    1.03843   1.00
C6       0.16902    0.33575    1.04564   1.00
C6       0.10247    0.39028    1.03375   1.00
C6       0.19807    0.29669    0.87374   1.00
C6       0.26302    0.27948    0.92405   1.00
C6       0.19023    0.24186    0.93752   1.00
C6       0.05306    0.30130    1.01138   1.00
H2       0.10709    0.28004    1.03395   1.00
C6       0.07353    0.30323    1.08121   1.00
H2       0.18142    0.31415    1.02581   1.00
C6       0.19866    0.37047    1.04624   1.00
C6       0.17164    0.31712    1.08726   1.00
H2       0.07669    0.39010    1.01496   1.00
C6       0.08728    0.39901    1.07599   1.00
C6       0.12651    0.42770    1.02252   1.00
C6       0.15429    0.30696    0.86597   1.00
C6       0.22275    0.32634    0.84921   1.00
H2       0.20288    0.26894    0.85886   1.00
H2       0.27449    0.30683    0.91247   1.00
C6       0.28122    0.27541    0.96578   1.00
C6       0.28107    0.24614    0.89866   1.00
H2       0.21125    0.22946    0.95800   1.00
C6       0.15164    0.24589    0.96127   1.00
C6       0.18256    0.20948    0.90619   1.00
H2       0.06154    0.29686    0.98097   1.00
H2       0.03410    0.32691    1.01270   1.00
H2       0.03583    0.27582    1.01986   1.00
H2       0.06892    0.27262    1.08896   1.00
H2       0.09322    0.31563    1.10276   1.00
H2       0.04536    0.31775    1.08461   1.00
H2       0.22828    0.35994    1.05177   1.00
H2       0.19968    0.38579    1.01845   1.00
H2       0.19148    0.39137    1.06918   1.00
H2       0.15638    0.28920    1.08849   1.00
H2       0.20192    0.31105    1.09537   1.00
H2       0.15950    0.33661    1.10937   1.00
H2       0.10986    0.39330    1.09774   1.00
H2       0.07792    0.42936    1.07935   1.00
H2       0.06168    0.38163    1.08287   1.00
H2       0.14598    0.43692    1.04599   1.00
H2       0.14432    0.42399    0.99668   1.00
H2       0.10672    0.45205    1.01665   1.00
H2       0.14812    0.33755    0.87203   1.00
H2       0.14691    0.30187    0.83535   1.00
H2       0.13452    0.28920    0.88335   1.00
H2       0.21375    0.32583    0.81859   1.00
H2       0.21926    0.35622    0.85935   1.00
H2       0.25378    0.31927    0.84949   1.00
H2       0.31298    0.27839    0.96442   1.00
H2       0.27065    0.29824    0.98537   1.00
H2       0.27465    0.24718    0.97896   1.00
H2       0.27084    0.24740    0.86854   1.00
H2       0.31288    0.24879    0.89779   1.00
H2       0.27415    0.21739    0.91056   1.00
H2       0.12844    0.25947    0.94427   1.00
H2       0.14119    0.21761    0.97163   1.00
H2       0.15666    0.26383    0.98689   1.00
H2       0.17456    0.18190    0.92013   1.00
H2       0.15878    0.21764    0.88658   1.00
H2       0.20843    0.20370    0.88862   1.00
C4       0.68584    0.41616    0.91781   1.00
C4       0.64412    0.41645    0.91715   1.00
C3       0.70864    0.44443    0.93776   1.00
C3       0.62116    0.44694    0.93331   1.00
C3       0.70623    0.38641    0.89698   1.00
C3       0.62386    0.38462    0.89951   1.00
C2       0.77012    0.41466    0.91615   1.00
C2       0.55988    0.41534    0.91385   1.00
C3       0.74962    0.44386    0.93678   1.00
C3       0.58019    0.44624    0.93204   1.00
C3       0.74758    0.38591    0.89696   1.00
C3       0.58262    0.38529    0.89706   1.00
H1       0.69615    0.46619    0.95369   1.00
H1       0.63352    0.47066    0.94626   1.00
C5       0.68520    0.35725    0.87644   1.00
C5       0.64480    0.35245    0.88411   1.00
H1       0.76455    0.46523    0.95152   1.00
H1       0.56510    0.46892    0.94450   1.00
H1       0.76180    0.36377    0.88279   1.00
H1       0.56868    0.36353    0.88216   1.00
O3       0.70461    0.33266    0.85123   1.00
O3       0.62599    0.31821    0.87406   1.00
Si1      0.70747    0.34362    0.80494   1.00
Si1      0.61779    0.28571    0.90788   1.00
C6       0.74038    0.30631    0.79157   1.00
C6       0.66098    0.33575    0.78436   1.00
C6       0.72753    0.39028    0.79625   1.00
C6       0.63193    0.29669    0.95626   1.00
C6       0.56698    0.27948    0.90595   1.00
C6       0.63977    0.24186    0.89248   1.00
C6       0.77694    0.30130    0.81862   1.00
H2       0.72291    0.28004    0.79605   1.00
C6       0.75647    0.30323    0.74879   1.00
H2       0.64858    0.31415    0.80419   1.00
C6       0.63134    0.37047    0.78376   1.00
C6       0.65836    0.31712    0.74274   1.00
H2       0.75331    0.39010    0.81504   1.00
C6       0.74272    0.39901    0.75401   1.00
C6       0.70349    0.42770    0.80748   1.00
C6       0.67571    0.30696    0.96403   1.00
C6       0.60725    0.32634    0.98079   1.00
H2       0.62712    0.26894    0.97114   1.00
H2       0.55551    0.30683    0.91753   1.00
C6       0.54878    0.27541    0.86422   1.00
C6       0.54893    0.24614    0.93134   1.00
H2       0.61875    0.22946    0.87200   1.00
C6       0.67836    0.24589    0.86873   1.00
C6       0.64744    0.20948    0.92381   1.00
H2       0.76846    0.29686    0.84903   1.00
H2       0.79590    0.32691    0.81730   1.00
H2       0.79417    0.27582    0.81014   1.00
H2       0.76108    0.27262    0.74104   1.00
H2       0.73678    0.31563    0.72724   1.00
H2       0.78464    0.31775    0.74539   1.00
H2       0.60172    0.35994    0.77823   1.00
H2       0.63032    0.38579    0.81155   1.00
H2       0.63852    0.39137    0.76082   1.00
H2       0.67362    0.28920    0.74151   1.00
H2       0.62808    0.31105    0.73463   1.00
H2       0.67050    0.33661    0.72063   1.00
H2       0.72014    0.39330    0.73226   1.00
H2       0.75208    0.42936    0.75065   1.00
H2       0.76832    0.38163    0.74713   1.00
H2       0.68402    0.43692    0.78401   1.00
H2       0.68568    0.42399    0.83332   1.00
H2       0.72328    0.45205    0.81335   1.00
H2       0.68188    0.33755    0.95797   1.00
H2       0.68309    0.30187    0.99465   1.00
H2       0.69548    0.28920    0.94665   1.00
H2       0.61625    0.32583    1.01141   1.00
H2       0.61074    0.35622    0.97065   1.00
H2       0.57622    0.31927    0.98051   1.00
H2       0.51702    0.27839    0.86558   1.00
H2       0.55935    0.29824    0.84463   1.00
H2       0.55535    0.24718    0.85104   1.00
H2       0.55916    0.24740    0.96146   1.00
H2       0.51712    0.24879    0.93221   1.00
H2       0.55585    0.21739    0.91944   1.00
H2       0.70156    0.25947    0.88573   1.00
H2       0.68881    0.21761    0.85837   1.00
H2       0.67334    0.26383    0.84311   1.00
H2       0.65544    0.18190    0.90987   1.00
H2       0.67122    0.21764    0.94342   1.00
H2       0.62157    0.20370    0.94138   1.00
C4       0.41219    0.14416    0.91616   1.00
C4       0.41285    0.18588    0.91645   1.00
C3       0.39224    0.12136    0.94443   1.00
C3       0.39669    0.20884    0.94694   1.00
C3       0.43302    0.12377    0.88641   1.00
C3       0.43049    0.20614    0.88462   1.00
C2       0.41385    0.05988    0.91466   1.00
C2       0.41615    0.27012    0.91534   1.00
C3       0.39322    0.08038    0.94386   1.00
C3       0.39796    0.24981    0.94624   1.00
C3       0.43304    0.08242    0.88591   1.00
C3       0.43294    0.24738    0.88529   1.00
H1       0.37631    0.13385    0.96619   1.00
H1       0.38374    0.19648    0.97066   1.00
C5       0.45356    0.14480    0.85725   1.00
C5       0.44589    0.18520    0.85245   1.00
H1       0.37848    0.06545    0.96523   1.00
H1       0.38550    0.26490    0.96892   1.00
H1       0.44721    0.06820    0.86377   1.00
H1       0.44784    0.26132    0.86353   1.00
O3       0.47877    0.12539    0.83266   1.00
O3       0.45594    0.20401    0.81821   1.00
Si1      0.52506    0.12253    0.84362   1.00
Si1      0.42212    0.21221    0.78571   1.00
C6       0.53843    0.08962    0.80631   1.00
C6       0.54564    0.16902    0.83575   1.00
C6       0.53375    0.10247    0.89028   1.00
C6       0.37374    0.19807    0.79669   1.00
C6       0.42405    0.26302    0.77948   1.00
C6       0.43752    0.19023    0.74186   1.00
C6       0.51138    0.05306    0.80130   1.00
H2       0.53395    0.10709    0.78004   1.00
C6       0.58121    0.07353    0.80323   1.00
H2       0.52581    0.18142    0.81415   1.00
C6       0.54624    0.19866    0.87047   1.00
C6       0.58726    0.17164    0.81712   1.00
H2       0.51496    0.07669    0.89010   1.00
C6       0.57599    0.08728    0.89901   1.00
C6       0.52252    0.12651    0.92770   1.00
C6       0.36597    0.15429    0.80696   1.00
C6       0.34921    0.22275    0.82634   1.00
H2       0.35886    0.20288    0.76894   1.00
H2       0.41247    0.27449    0.80683   1.00
C6       0.46578    0.28122    0.77541   1.00
C6       0.39866    0.28107    0.74614   1.00
H2       0.45800    0.21125    0.72946   1.00
C6       0.46127    0.15164    0.74589   1.00
C6       0.40619    0.18256    0.70948   1.00
H2       0.48097    0.06154    0.79686   1.00
H2       0.51270    0.03410    0.82691   1.00
H2       0.51986    0.03583    0.77582   1.00
H2       0.58896    0.06892    0.77262   1.00
H2       0.60276    0.09322    0.81563   1.00
H2       0.58461    0.04536    0.81775   1.00
H2       0.55177    0.22828    0.85994   1.00
H2       0.51845    0.19968    0.88579   1.00
H2       0.56918    0.19148    0.89137   1.00
H2       0.58849    0.15638    0.78920   1.00
H2       0.59537    0.20192    0.81105   1.00
H2       0.60937    0.15950    0.83661   1.00
H2       0.59774    0.10986    0.89330   1.00
H2       0.57935    0.07792    0.92936   1.00
H2       0.58287    0.06168    0.88163   1.00
H2       0.54599    0.14598    0.93692   1.00
H2       0.49668    0.14432    0.92399   1.00
H2       0.51665    0.10672    0.95205   1.00
H2       0.37203    0.14812    0.83755   1.00
H2       0.33535    0.14691    0.80187   1.00
H2       0.38335    0.13452    0.78920   1.00
H2       0.31859    0.21375    0.82583   1.00
H2       0.35935    0.21926    0.85622   1.00
H2       0.34949    0.25378    0.81927   1.00
H2       0.46442    0.31298    0.77839   1.00
H2       0.48537    0.27065    0.79824   1.00
H2       0.47896    0.27465    0.74718   1.00
H2       0.36854    0.27084    0.74740   1.00
H2       0.39779    0.31288    0.74879   1.00
H2       0.41056    0.27415    0.71739   1.00
H2       0.44427    0.12844    0.75947   1.00
H2       0.47163    0.14119    0.71761   1.00
H2       0.48689    0.15666    0.76383   1.00
H2       0.42013    0.17456    0.68190   1.00
H2       0.38658    0.15878    0.71764   1.00
H2       0.38862    0.20843    0.70370   1.00
C4       0.41616    0.41219    0.64416   1.00
C4       0.41645    0.41285    0.68588   1.00
C3       0.44443    0.39224    0.62136   1.00
C3       0.44694    0.39669    0.70884   1.00
C3       0.38641    0.43302    0.62377   1.00
C3       0.38462    0.43049    0.70614   1.00
C2       0.41466    0.41385    0.55988   1.00
C2       0.41534    0.41615    0.77012   1.00
C3       0.44386    0.39322    0.58038   1.00
C3       0.44624    0.39796    0.74981   1.00
C3       0.38591    0.43304    0.58242   1.00
C3       0.38529    0.43294    0.74738   1.00
H1       0.46619    0.37631    0.63385   1.00
H1       0.47066    0.38374    0.69648   1.00
C5       0.35725    0.45356    0.64480   1.00
C5       0.35245    0.44589    0.68520   1.00
H1       0.46523    0.37848    0.56545   1.00
H1       0.46892    0.38550    0.76490   1.00
H1       0.36377    0.44721    0.56820   1.00
H1       0.36353    0.44784    0.76132   1.00
O3       0.33266    0.47877    0.62539   1.00
O3       0.31821    0.45594    0.70401   1.00
Si1      0.34362    0.52506    0.62253   1.00
Si1      0.28571    0.42212    0.71221   1.00
C6       0.30631    0.53843    0.58962   1.00
C6       0.33575    0.54564    0.66902   1.00
C6       0.39028    0.53375    0.60247   1.00
C6       0.29669    0.37374    0.69807   1.00
C6       0.27948    0.42405    0.76302   1.00
C6       0.24186    0.43752    0.69023   1.00
C6       0.30130    0.51138    0.55306   1.00
H2       0.28004    0.53395    0.60709   1.00
C6       0.30323    0.58121    0.57353   1.00
H2       0.31415    0.52581    0.68142   1.00
C6       0.37047    0.54624    0.69866   1.00
C6       0.31712    0.58726    0.67164   1.00
H2       0.39010    0.51496    0.57669   1.00
C6       0.39901    0.57599    0.58728   1.00
C6       0.42770    0.52252    0.62651   1.00
C6       0.30696    0.36597    0.65429   1.00
C6       0.32634    0.34921    0.72275   1.00
H2       0.26894    0.35886    0.70288   1.00
H2       0.30683    0.41247    0.77449   1.00
C6       0.27541    0.46578    0.78122   1.00
C6       0.24614    0.39866    0.78107   1.00
H2       0.22946    0.45800    0.71125   1.00
C6       0.24589    0.46127    0.65164   1.00
C6       0.20948    0.40619    0.68256   1.00
H2       0.29686    0.48097    0.56154   1.00
H2       0.32691    0.51270    0.53410   1.00
H2       0.27582    0.51986    0.53583   1.00
H2       0.27262    0.58896    0.56892   1.00
H2       0.31563    0.60276    0.59322   1.00
H2       0.31775    0.58461    0.54536   1.00
H2       0.35994    0.55177    0.72828   1.00
H2       0.38579    0.51845    0.69968   1.00
H2       0.39137    0.56918    0.69148   1.00
H2       0.28920    0.58849    0.65638   1.00
H2       0.31105    0.59537    0.70192   1.00
H2       0.33661    0.60937    0.65950   1.00
H2       0.39330    0.59774    0.60986   1.00
H2       0.42936    0.57935    0.57792   1.00
H2       0.38163    0.58287    0.56168   1.00
H2       0.43692    0.54599    0.64598   1.00
H2       0.42399    0.49668    0.64432   1.00
H2       0.45205    0.51665    0.60672   1.00
H2       0.33755    0.37203    0.64812   1.00
H2       0.30187    0.33535    0.64691   1.00
H2       0.28920    0.38335    0.63452   1.00
H2       0.32583    0.31859    0.71375   1.00
H2       0.35622    0.35935    0.71926   1.00
H2       0.31927    0.34949    0.75378   1.00
H2       0.27839    0.46442    0.81298   1.00
H2       0.29824    0.48537    0.77065   1.00
H2       0.24718    0.47896    0.77465   1.00
H2       0.24740    0.36854    0.77084   1.00
H2       0.24879    0.39779    0.81288   1.00
H2       0.21739    0.41056    0.77415   1.00
H2       0.25947    0.44427    0.62844   1.00
H2       0.21761    0.47163    0.64119   1.00
H2       0.26383    0.48689    0.65666   1.00
H2       0.18190    0.42013    0.67456   1.00
H2       0.21764    0.38658    0.65878   1.00
H2       0.20370    0.38862    0.70843   1.00
C4       0.41616    0.91781    0.68584   1.00
C4       0.41645    0.91715    0.64412   1.00
C3       0.44443    0.93776    0.70864   1.00
C3       0.44694    0.93331    0.62116   1.00
C3       0.38641    0.89698    0.70623   1.00
C3       0.38462    0.89951    0.62386   1.00
C2       0.41466    0.91615    0.77012   1.00
C2       0.41534    0.91385    0.55988   1.00
C3       0.44386    0.93678    0.74962   1.00
C3       0.44624    0.93204    0.58019   1.00
C3       0.38591    0.89696    0.74758   1.00
C3       0.38529    0.89706    0.58262   1.00
H1       0.46619    0.95369    0.69615   1.00
H1       0.47066    0.94626    0.63352   1.00
C5       0.35725    0.87644    0.68520   1.00
C5       0.35245    0.88411    0.64480   1.00
H1       0.46523    0.95152    0.76455   1.00
H1       0.46892    0.94450    0.56510   1.00
H1       0.36377    0.88279    0.76180   1.00
H1       0.36353    0.88216    0.56868   1.00
O3       0.33266    0.85123    0.70461   1.00
O3       0.31821    0.87406    0.62599   1.00
Si1      0.34362    0.80494    0.70747   1.00
Si1      0.28571    0.90788    0.61779   1.00
C6       0.30631    0.79157    0.74038   1.00
C6       0.33575    0.78436    0.66098   1.00
C6       0.39028    0.79625    0.72753   1.00
C6       0.29669    0.95626    0.63193   1.00
C6       0.27948    0.90595    0.56698   1.00
C6       0.24186    0.89248    0.63977   1.00
C6       0.30130    0.81862    0.77694   1.00
H2       0.28004    0.79605    0.72291   1.00
C6       0.30323    0.74879    0.75647   1.00
H2       0.31415    0.80419    0.64858   1.00
C6       0.37047    0.78376    0.63134   1.00
C6       0.31712    0.74274    0.65836   1.00
H2       0.39010    0.81504    0.75331   1.00
C6       0.39901    0.75401    0.74272   1.00
C6       0.42770    0.80748    0.70349   1.00
C6       0.30696    0.96403    0.67571   1.00
C6       0.32634    0.98079    0.60725   1.00
H2       0.26894    0.97114    0.62712   1.00
H2       0.30683    0.91753    0.55551   1.00
C6       0.27541    0.86422    0.54878   1.00
C6       0.24614    0.93134    0.54893   1.00
H2       0.22946    0.87200    0.61875   1.00
C6       0.24589    0.86873    0.67836   1.00
C6       0.20948    0.92381    0.64744   1.00
H2       0.29686    0.84903    0.76846   1.00
H2       0.32691    0.81730    0.79590   1.00
H2       0.27582    0.81014    0.79417   1.00
H2       0.27262    0.74104    0.76108   1.00
H2       0.31563    0.72724    0.73678   1.00
H2       0.31775    0.74539    0.78464   1.00
H2       0.35994    0.77823    0.60172   1.00
H2       0.38579    0.81155    0.63032   1.00
H2       0.39137    0.76082    0.63852   1.00
H2       0.28920    0.74151    0.67362   1.00
H2       0.31105    0.73463    0.62808   1.00
H2       0.33661    0.72063    0.67050   1.00
H2       0.39330    0.73226    0.72014   1.00
H2       0.42936    0.75065    0.75208   1.00
H2       0.38163    0.74713    0.76832   1.00
H2       0.43692    0.78401    0.68402   1.00
H2       0.42399    0.83332    0.68568   1.00
H2       0.45205    0.81335    0.72328   1.00
H2       0.33755    0.95797    0.68188   1.00
H2       0.30187    0.99465    0.68309   1.00
H2       0.28920    0.94665    0.69548   1.00
H2       0.32583    1.01141    0.61625   1.00
H2       0.35622    0.97065    0.61074   1.00
H2       0.31927    0.98051    0.57622   1.00
H2       0.27839    0.86558    0.51702   1.00
H2       0.29824    0.84463    0.55935   1.00
H2       0.24718    0.85104    0.55535   1.00
H2       0.24740    0.96146    0.55916   1.00
H2       0.24879    0.93221    0.51712   1.00
H2       0.21739    0.91944    0.55585   1.00
H2       0.25947    0.88573    0.70156   1.00
H2       0.21761    0.85837    0.68881   1.00
H2       0.26383    0.84311    0.67334   1.00
H2       0.18190    0.90987    0.65544   1.00
H2       0.21764    0.94342    0.67122   1.00
H2       0.20370    0.94138    0.62157   1.00
C4       0.41781    1.18584    0.41616   1.00
C4       0.41715    1.14412    0.41645   1.00
C3       0.43776    1.20864    0.44443   1.00
C3       0.43331    1.12116    0.44694   1.00
C3       0.39698    1.20623    0.38641   1.00
C3       0.39951    1.12386    0.38462   1.00
C2       0.41615    1.27012    0.41466   1.00
C2       0.41385    1.05988    0.41534   1.00
C3       0.43678    1.24962    0.44386   1.00
C3       0.43204    1.08019    0.44624   1.00
C3       0.39696    1.24758    0.38591   1.00
C3       0.39706    1.08262    0.38529   1.00
H1       0.45369    1.19615    0.46619   1.00
H1       0.44626    1.13352    0.47066   1.00
C5       0.37644    1.18520    0.35725   1.00
C5       0.38411    1.14480    0.35245   1.00
H1       0.45152    1.26455    0.46523   1.00
H1       0.44450    1.06510    0.46892   1.00
H1       0.38279    1.26180    0.36377   1.00
H1       0.38216    1.06868    0.36353   1.00
O3       0.35123    1.20461    0.33266   1.00
O3       0.37406    1.12599    0.31821   1.00
Si1      0.30494    1.20747    0.34362   1.00
Si1      0.40788    1.11779    0.28571   1.00
C6       0.29157    1.24038    0.30631   1.00
C6       0.28436    1.16098    0.33575   1.00
C6       0.29625    1.22753    0.39028   1.00
C6       0.45626    1.13193    0.29669   1.00
C6       0.40595    1.06698    0.27948   1.00
C6       0.39248    1.13977    0.24186   1.00
C6       0.31862    1.27694    0.30130   1.00
H2       0.29605    1.22291    0.28004   1.00
C6       0.24879    1.25647    0.30323   1.00
H2       0.30419    1.14858    0.31415   1.00
C6       0.28376    1.13134    0.37047   1.00
C6       0.24274    1.15836    0.31712   1.00
H2       0.31504    1.25331    0.39010   1.00
C6       0.25401    1.24272    0.39901   1.00
C6       0.30748    1.20349    0.42770   1.00
C6       0.46403    1.17571    0.30696   1.00
C6       0.48079    1.10725    0.32634   1.00
H2       0.47114    1.12712    0.26894   1.00
H2       0.41753    1.05551    0.30683   1.00
C6       0.36422    1.04878    0.27541   1.00
C6       0.43134    1.04893    0.24614   1.00
H2       0.37200    1.11875    0.22946   1.00
C6       0.36873    1.17836    0.24589   1.00
C6       0.42381    1.14744    0.20948   1.00
H2       0.34903    1.26846    0.29686   1.00
H2       0.31730    1.29590    0.32691   1.00
H2       0.31014    1.29417    0.27582   1.00
H2       0.24104    1.26108    0.27262   1.00
H2       0.22724    1.23678    0.31563   1.00
H2       0.24539    1.28464    0.31775   1.00
H2       0.27823    1.10172    0.35994   1.00
H2       0.31155    1.13032    0.38579   1.00
H2       0.26082    1.13852    0.39137   1.00
H2       0.24151    1.17362    0.28920   1.00
H2       0.23463    1.12808    0.31105   1.00
H2       0.22063    1.17050    0.33661   1.00
H2       0.23226    1.22014    0.39330   1.00
H2       0.25065    1.25208    0.42936   1.00
H2       0.24713    1.26832    0.38163   1.00
H2       0.28401    1.18402    0.43692   1.00
H2       0.33332    1.18568    0.42399   1.00
H2       0.31335    1.22328    0.45205   1.00
H2       0.45797    1.18188    0.33755   1.00
H2       0.49465    1.18309    0.30187   1.00
H2       0.44665    1.19548    0.28920   1.00
H2       0.51141    1.11625    0.32583   1.00
H2       0.47065    1.11074    0.35622   1.00
H2       0.48051    1.07622    0.31927   1.00
H2       0.36558    1.01702    0.27839   1.00
H2       0.34463    1.05935    0.29824   1.00
H2       0.35104    1.05535    0.24718   1.00
H2       0.46146    1.05916    0.24740   1.00
H2       0.43221    1.01712    0.24879   1.00
H2       0.41944    1.05585    0.21739   1.00
H2       0.38573    1.20156    0.25947   1.00
H2       0.35837    1.18881    0.21761   1.00
H2       0.34311    1.17334    0.26383   1.00
H2       0.40987    1.15544    0.18190   1.00
H2       0.44342    1.17122    0.21764   1.00
H2       0.44138    1.12157    0.20370   1.00
C4       0.14416    0.91616    0.41219   1.00
C4       0.18588    0.91645    0.41285   1.00
C3       0.12136    0.94443    0.39224   1.00
C3       0.20884    0.94694    0.39669   1.00
C3       0.12377    0.88641    0.43302   1.00
C3       0.20614    0.88462    0.43049   1.00
C2       0.05988    0.91466    0.41385   1.00
C2       0.27012    0.91534    0.41615   1.00
C3       0.08038    0.94386    0.39322   1.00
C3       0.24981    0.94624    0.39796   1.00
C3       0.08242    0.88591    0.43304   1.00
C3       0.24738    0.88529    0.43294   1.00
H1       0.13385    0.96619    0.37631   1.00
H1       0.19648    0.97066    0.38374   1.00
C5       0.14480    0.85725    0.45356   1.00
C5       0.18520    0.85245    0.44589   1.00
H1       0.06545    0.96523    0.37848   1.00
H1       0.26490    0.96892    0.38550   1.00
H1       0.06820    0.86377    0.44721   1.00
H1       0.26132    0.86353    0.44784   1.00
O3       0.12539    0.83266    0.47877   1.00
O3       0.20401    0.81821    0.45594   1.00
Si1      0.12253    0.84362    0.52506   1.00
Si1      0.21221    0.78571    0.42212   1.00
C6       0.08962    0.80631    0.53843   1.00
C6       0.16902    0.83575    0.54564   1.00
C6       0.10247    0.89028    0.53375   1.00
C6       0.19807    0.79669    0.37374   1.00
C6       0.26302    0.77948    0.42405   1.00
C6       0.19023    0.74186    0.43752   1.00
C6       0.05306    0.80130    0.51138   1.00
H2       0.10709    0.78004    0.53395   1.00
C6       0.07353    0.80323    0.58121   1.00
H2       0.18142    0.81415    0.52581   1.00
C6       0.19866    0.87047    0.54624   1.00
C6       0.17164    0.81712    0.58726   1.00
H2       0.07669    0.89010    0.51496   1.00
C6       0.08728    0.89901    0.57599   1.00
C6       0.12651    0.92770    0.52252   1.00
C6       0.15429    0.80696    0.36597   1.00
C6       0.22275    0.82634    0.34921   1.00
H2       0.20288    0.76894    0.35886   1.00
H2       0.27449    0.80683    0.41247   1.00
C6       0.28122    0.77541    0.46578   1.00
C6       0.28107    0.74614    0.39866   1.00
H2       0.21125    0.72946    0.45800   1.00
C6       0.15164    0.74589    0.46127   1.00
C6       0.18256    0.70948    0.40619   1.00
H2       0.06154    0.79686    0.48097   1.00
H2       0.03410    0.82691    0.51270   1.00
H2       0.03583    0.77582    0.51986   1.00
H2       0.06892    0.77262    0.58896   1.00
H2       0.09322    0.81563    0.60276   1.00
H2       0.04536    0.81775    0.58461   1.00
H2       0.22828    0.85994    0.55177   1.00
H2       0.19968    0.88579    0.51845   1.00
H2       0.19148    0.89137    0.56918   1.00
H2       0.15638    0.78920    0.58849   1.00
H2       0.20192    0.81105    0.59537   1.00
H2       0.15950    0.83661    0.60937   1.00
H2       0.10986    0.89330    0.59774   1.00
H2       0.07792    0.92936    0.57935   1.00
H2       0.06168    0.88163    0.58287   1.00
H2       0.14598    0.93692    0.54599   1.00
H2       0.14432    0.92399    0.49668   1.00
H2       0.10672    0.95205    0.51665   1.00
H2       0.14812    0.83755    0.37203   1.00
H2       0.14691    0.80187    0.33535   1.00
H2       0.13452    0.78920    0.38335   1.00
H2       0.21375    0.82583    0.31859   1.00
H2       0.21926    0.85622    0.35935   1.00
H2       0.25378    0.81927    0.34949   1.00
H2       0.31298    0.77839    0.46442   1.00
H2       0.27065    0.79824    0.48537   1.00
H2       0.27465    0.74718    0.47896   1.00
H2       0.27084    0.74740    0.36854   1.00
H2       0.31288    0.74879    0.39779   1.00
H2       0.27415    0.71739    0.41056   1.00
H2       0.12844    0.75947    0.44427   1.00
H2       0.14119    0.71761    0.47163   1.00
H2       0.15666    0.76383    0.48689   1.00
H2       0.17456    0.68190    0.42013   1.00
H2       0.15878    0.71764    0.38658   1.00
H2       0.20843    0.70370    0.38862   1.00
C4       0.68584    0.91616    0.41781   1.00
C4       0.64412    0.91645    0.41715   1.00
C3       0.70864    0.94443    0.43776   1.00
C3       0.62116    0.94694    0.43331   1.00
C3       0.70623    0.88641    0.39698   1.00
C3       0.62386    0.88462    0.39951   1.00
C2       0.77012    0.91466    0.41615   1.00
C2       0.55988    0.91534    0.41385   1.00
C3       0.74962    0.94386    0.43678   1.00
C3       0.58019    0.94624    0.43204   1.00
C3       0.74758    0.88591    0.39696   1.00
C3       0.58262    0.88529    0.39706   1.00
H1       0.69615    0.96619    0.45369   1.00
H1       0.63352    0.97066    0.44626   1.00
C5       0.68520    0.85725    0.37644   1.00
C5       0.64480    0.85245    0.38411   1.00
H1       0.76455    0.96523    0.45152   1.00
H1       0.56510    0.96892    0.44450   1.00
H1       0.76180    0.86377    0.38279   1.00
H1       0.56868    0.86353    0.38216   1.00
O3       0.70461    0.83266    0.35123   1.00
O3       0.62599    0.81821    0.37406   1.00
Si1      0.70747    0.84362    0.30494   1.00
Si1      0.61779    0.78571    0.40788   1.00
C6       0.74038    0.80631    0.29157   1.00
C6       0.66098    0.83575    0.28436   1.00
C6       0.72753    0.89028    0.29625   1.00
C6       0.63193    0.79669    0.45626   1.00
C6       0.56698    0.77948    0.40595   1.00
C6       0.63977    0.74186    0.39248   1.00
C6       0.77694    0.80130    0.31862   1.00
H2       0.72291    0.78004    0.29605   1.00
C6       0.75647    0.80323    0.24879   1.00
H2       0.64858    0.81415    0.30419   1.00
C6       0.63134    0.87047    0.28376   1.00
C6       0.65836    0.81712    0.24274   1.00
H2       0.75331    0.89010    0.31504   1.00
C6       0.74272    0.89901    0.25401   1.00
C6       0.70349    0.92770    0.30748   1.00
C6       0.67571    0.80696    0.46403   1.00
C6       0.60725    0.82634    0.48079   1.00
H2       0.62712    0.76894    0.47114   1.00
H2       0.55551    0.80683    0.41753   1.00
C6       0.54878    0.77541    0.36422   1.00
C6       0.54893    0.74614    0.43134   1.00
H2       0.61875    0.72946    0.37200   1.00
C6       0.67836    0.74589    0.36873   1.00
C6       0.64744    0.70948    0.42381   1.00
H2       0.76846    0.79686    0.34903   1.00
H2       0.79590    0.82691    0.31730   1.00
H2       0.79417    0.77582    0.31014   1.00
H2       0.76108    0.77262    0.24104   1.00
H2       0.73678    0.81563    0.22724   1.00
H2       0.78464    0.81775    0.24539   1.00
H2       0.60172    0.85994    0.27823   1.00
H2       0.63032    0.88579    0.31155   1.00
H2       0.63852    0.89137    0.26082   1.00
H2       0.67362    0.78920    0.24151   1.00
H2       0.62808    0.81105    0.23463   1.00
H2       0.67050    0.83661    0.22063   1.00
H2       0.72014    0.89330    0.23226   1.00
H2       0.75208    0.92936    0.25065   1.00
H2       0.76832    0.88163    0.24713   1.00
H2       0.68402    0.93692    0.28401   1.00
H2       0.68568    0.92399    0.33332   1.00
H2       0.72328    0.95205    0.31335   1.00
H2       0.68188    0.83755    0.45797   1.00
H2       0.68309    0.80187    0.49465   1.00
H2       0.69548    0.78920    0.44665   1.00
H2       0.61625    0.82583    0.51141   1.00
H2       0.61074    0.85622    0.47065   1.00
H2       0.57622    0.81927    0.48051   1.00
H2       0.51702    0.77839    0.36558   1.00
H2       0.55935    0.79824    0.34463   1.00
H2       0.55535    0.74718    0.35104   1.00
H2       0.55916    0.74740    0.46146   1.00
H2       0.51712    0.74879    0.43221   1.00
H2       0.55585    0.71739    0.41944   1.00
H2       0.70156    0.75947    0.38573   1.00
H2       0.68881    0.71761    0.35837   1.00
H2       0.67334    0.76383    0.34311   1.00
H2       0.65544    0.68190    0.40987   1.00
H2       0.67122    0.71764    0.44342   1.00
H2       0.62157    0.70370    0.44138   1.00
C4       0.41219    0.64416    0.41616   1.00
C4       0.41285    0.68588    0.41645   1.00
C3       0.39224    0.62136    0.44443   1.00
C3       0.39669    0.70884    0.44694   1.00
C3       0.43302    0.62377    0.38641   1.00
C3       0.43049    0.70614    0.38462   1.00
C2       0.41385    0.55988    0.41466   1.00
C2       0.41615    0.77012    0.41534   1.00
C3       0.39322    0.58038    0.44386   1.00
C3       0.39796    0.74981    0.44624   1.00
C3       0.43304    0.58242    0.38591   1.00
C3       0.43294    0.74738    0.38529   1.00
H1       0.37631    0.63385    0.46619   1.00
H1       0.38374    0.69648    0.47066   1.00
C5       0.45356    0.64480    0.35725   1.00
C5       0.44589    0.68520    0.35245   1.00
H1       0.37848    0.56545    0.46523   1.00
H1       0.38550    0.76490    0.46892   1.00
H1       0.44721    0.56820    0.36377   1.00
H1       0.44784    0.76132    0.36353   1.00
O3       0.47877    0.62539    0.33266   1.00
O3       0.45594    0.70401    0.31821   1.00
Si1      0.52506    0.62253    0.34362   1.00
Si1      0.42212    0.71221    0.28571   1.00
C6       0.53843    0.58962    0.30631   1.00
C6       0.54564    0.66902    0.33575   1.00
C6       0.53375    0.60247    0.39028   1.00
C6       0.37374    0.69807    0.29669   1.00
C6       0.42405    0.76302    0.27948   1.00
C6       0.43752    0.69023    0.24186   1.00
C6       0.51138    0.55306    0.30130   1.00
H2       0.53395    0.60709    0.28004   1.00
C6       0.58121    0.57353    0.30323   1.00
H2       0.52581    0.68142    0.31415   1.00
C6       0.54624    0.69866    0.37047   1.00
C6       0.58726    0.67164    0.31712   1.00
H2       0.51496    0.57669    0.39010   1.00
C6       0.57599    0.58728    0.39901   1.00
C6       0.52252    0.62651    0.42770   1.00
C6       0.36597    0.65429    0.30696   1.00
C6       0.34921    0.72275    0.32634   1.00
H2       0.35886    0.70288    0.26894   1.00
H2       0.41247    0.77449    0.30683   1.00
C6       0.46578    0.78122    0.27541   1.00
C6       0.39866    0.78107    0.24614   1.00
H2       0.45800    0.71125    0.22946   1.00
C6       0.46127    0.65164    0.24589   1.00
C6       0.40619    0.68256    0.20948   1.00
H2       0.48097    0.56154    0.29686   1.00
H2       0.51270    0.53410    0.32691   1.00
H2       0.51986    0.53583    0.27582   1.00
H2       0.58896    0.56892    0.27262   1.00
H2       0.60276    0.59322    0.31563   1.00
H2       0.58461    0.54536    0.31775   1.00
H2       0.55177    0.72828    0.35994   1.00
H2       0.51845    0.69968    0.38579   1.00
H2       0.56918    0.69148    0.39137   1.00
H2       0.58849    0.65638    0.28920   1.00
H2       0.59537    0.70192    0.31105   1.00
H2       0.60937    0.65950    0.33661   1.00
H2       0.59774    0.60986    0.39330   1.00
H2       0.57935    0.57792    0.42936   1.00
H2       0.58287    0.56168    0.38163   1.00
H2       0.54599    0.64598    0.43692   1.00
H2       0.49668    0.64432    0.42399   1.00
H2       0.51665    0.60672    0.45205   1.00
H2       0.37203    0.64812    0.33755   1.00
H2       0.33535    0.64691    0.30187   1.00
H2       0.38335    0.63452    0.28920   1.00
H2       0.31859    0.71375    0.32583   1.00
H2       0.35935    0.71926    0.35622   1.00
H2       0.34949    0.75378    0.31927   1.00
H2       0.46442    0.81298    0.27839   1.00
H2       0.48537    0.77065    0.29824   1.00
H2       0.47896    0.77465    0.24718   1.00
H2       0.36854    0.77084    0.24740   1.00
H2       0.39779    0.81288    0.24879   1.00
H2       0.41056    0.77415    0.21739   1.00
H2       0.44427    0.62844    0.25947   1.00
H2       0.47163    0.64119    0.21761   1.00
H2       0.48689    0.65666    0.26383   1.00
H2       0.42013    0.67456    0.18190   1.00
H2       0.38658    0.65878    0.21764   1.00
H2       0.38862    0.70843    0.20370   1.00
C4       0.41616    0.91219    0.14416   1.00
C4       0.41645    0.91285    0.18588   1.00
C3       0.44443    0.89224    0.12136   1.00
C3       0.44694    0.89669    0.20884   1.00
C3       0.38641    0.93302    0.12377   1.00
C3       0.38462    0.93049    0.20614   1.00
C2       0.41466    0.91385    0.05988   1.00
C2       0.41534    0.91615    0.27012   1.00
C3       0.44386    0.89322    0.08038   1.00
C3       0.44624    0.89796    0.24981   1.00
C3       0.38591    0.93304    0.08242   1.00
C3       0.38529    0.93294    0.24738   1.00
H1       0.46619    0.87631    0.13385   1.00
H1       0.47066    0.88374    0.19648   1.00
C5       0.35725    0.95356    0.14480   1.00
C5       0.35245    0.94589    0.18520   1.00
H1       0.46523    0.87848    0.06545   1.00
H1       0.46892    0.88550    0.26490   1.00
H1       0.36377    0.94721    0.06820   1.00
H1       0.36353    0.94784    0.26132   1.00
O3       0.33266    0.97877    0.12539   1.00
O3       0.31821    0.95594    0.20401   1.00
Si1      0.34362    1.02506    0.12253   1.00
Si1      0.28571    0.92212    0.21221   1.00
C6       0.30631    1.03843    0.08962   1.00
C6       0.33575    1.04564    0.16902   1.00
C6       0.39028    1.03375    0.10247   1.00
C6       0.29669    0.87374    0.19807   1.00
C6       0.27948    0.92405    0.26302   1.00
C6       0.24186    0.93752    0.19023   1.00
C6       0.30130    1.01138    0.05306   1.00
H2       0.28004    1.03395    0.10709   1.00
C6       0.30323    1.08121    0.07353   1.00
H2       0.31415    1.02581    0.18142   1.00
C6       0.37047    1.04624    0.19866   1.00
C6       0.31712    1.08726    0.17164   1.00
H2       0.39010    1.01496    0.07669   1.00
C6       0.39901    1.07599    0.08728   1.00
C6       0.42770    1.02252    0.12651   1.00
C6       0.30696    0.86597    0.15429   1.00
C6       0.32634    0.84921    0.22275   1.00
H2       0.26894    0.85886    0.20288   1.00
H2       0.30683    0.91247    0.27449   1.00
C6       0.27541    0.96578    0.28122   1.00
C6       0.24614    0.89866    0.28107   1.00
H2       0.22946    0.95800    0.21125   1.00
C6       0.24589    0.96127    0.15164   1.00
C6       0.20948    0.90619    0.18256   1.00
H2       0.29686    0.98097    0.06154   1.00
H2       0.32691    1.01270    0.03410   1.00
H2       0.27582    1.01986    0.03583   1.00
H2       0.27262    1.08896    0.06892   1.00
H2       0.31563    1.10276    0.09322   1.00
H2       0.31775    1.08461    0.04536   1.00
H2       0.35994    1.05177    0.22828   1.00
H2       0.38579    1.01845    0.19968   1.00
H2       0.39137    1.06918    0.19148   1.00
H2       0.28920    1.08849    0.15638   1.00
H2       0.31105    1.09537    0.20192   1.00
H2       0.33661    1.10937    0.15950   1.00
H2       0.39330    1.09774    0.10986   1.00
H2       0.42936    1.07935    0.07792   1.00
H2       0.38163    1.08287    0.06168   1.00
H2       0.43692    1.04599    0.14598   1.00
H2       0.42399    0.99668    0.14432   1.00
H2       0.45205    1.01665    0.10672   1.00
H2       0.33755    0.87203    0.14812   1.00
H2       0.30187    0.83535    0.14691   1.00
H2       0.28920    0.88335    0.13452   1.00
H2       0.32583    0.81859    0.21375   1.00
H2       0.35622    0.85935    0.21926   1.00
H2       0.31927    0.84949    0.25378   1.00
H2       0.27839    0.96442    0.31298   1.00
H2       0.29824    0.98537    0.27065   1.00
H2       0.24718    0.97896    0.27465   1.00
H2       0.24740    0.86854    0.27084   1.00
H2       0.24879    0.89779    0.31288   1.00
H2       0.21739    0.91056    0.27415   1.00
H2       0.25947    0.94427    0.12844   1.00
H2       0.21761    0.97163    0.14119   1.00
H2       0.26383    0.98689    0.15666   1.00
H2       0.18190    0.92013    0.17456   1.00
H2       0.21764    0.88658    0.15878   1.00
H2       0.20370    0.88862    0.20843   1.00
C4       0.91616    0.41781    0.68584   1.00
C4       0.91645    0.41715    0.64412   1.00
C3       0.94443    0.43776    0.70864   1.00
C3       0.94694    0.43331    0.62116   1.00
C3       0.88641    0.39698    0.70623   1.00
C3       0.88462    0.39951    0.62386   1.00
C2       0.91466    0.41615    0.77012   1.00
C2       0.91534    0.41385    0.55988   1.00
C3       0.94386    0.43678    0.74962   1.00
C3       0.94624    0.43204    0.58019   1.00
C3       0.88591    0.39696    0.74758   1.00
C3       0.88529    0.39706    0.58262   1.00
H1       0.96619    0.45369    0.69615   1.00
H1       0.97066    0.44626    0.63352   1.00
C5       0.85725    0.37644    0.68520   1.00
C5       0.85245    0.38411    0.64480   1.00
H1       0.96523    0.45152    0.76455   1.00
H1       0.96892    0.44450    0.56510   1.00
H1       0.86377    0.38279    0.76180   1.00
H1       0.86353    0.38216    0.56868   1.00
O3       0.83266    0.35123    0.70461   1.00
O3       0.81821    0.37406    0.62599   1.00
Si1      0.84362    0.30494    0.70747   1.00
Si1      0.78571    0.40788    0.61779   1.00
C6       0.80631    0.29157    0.74038   1.00
C6       0.83575    0.28436    0.66098   1.00
C6       0.89028    0.29625    0.72753   1.00
C6       0.79669    0.45626    0.63193   1.00
C6       0.77948    0.40595    0.56698   1.00
C6       0.74186    0.39248    0.63977   1.00
C6       0.80130    0.31862    0.77694   1.00
H2       0.78004    0.29605    0.72291   1.00
C6       0.80323    0.24879    0.75647   1.00
H2       0.81415    0.30419    0.64858   1.00
C6       0.87047    0.28376    0.63134   1.00
C6       0.81712    0.24274    0.65836   1.00
H2       0.89010    0.31504    0.75331   1.00
C6       0.89901    0.25401    0.74272   1.00
C6       0.92770    0.30748    0.70349   1.00
C6       0.80696    0.46403    0.67571   1.00
C6       0.82634    0.48079    0.60725   1.00
H2       0.76894    0.47114    0.62712   1.00
H2       0.80683    0.41753    0.55551   1.00
C6       0.77541    0.36422    0.54878   1.00
C6       0.74614    0.43134    0.54893   1.00
H2       0.72946    0.37200    0.61875   1.00
C6       0.74589    0.36873    0.67836   1.00
C6       0.70948    0.42381    0.64744   1.00
H2       0.79686    0.34903    0.76846   1.00
H2       0.82691    0.31730    0.79590   1.00
H2       0.77582    0.31014    0.79417   1.00
H2       0.77262    0.24104    0.76108   1.00
H2       0.81563    0.22724    0.73678   1.00
H2       0.81775    0.24539    0.78464   1.00
H2       0.85994    0.27823    0.60172   1.00
H2       0.88579    0.31155    0.63032   1.00
H2       0.89137    0.26082    0.63852   1.00
H2       0.78920    0.24151    0.67362   1.00
H2       0.81105    0.23463    0.62808   1.00
H2       0.83661    0.22063    0.67050   1.00
H2       0.89330    0.23226    0.72014   1.00
H2       0.92936    0.25065    0.75208   1.00
H2       0.88163    0.24713    0.76832   1.00
H2       0.93692    0.28401    0.68402   1.00
H2       0.92399    0.33332    0.68568   1.00
H2       0.95205    0.31335    0.72328   1.00
H2       0.83755    0.45797    0.68188   1.00
H2       0.80187    0.49465    0.68309   1.00
H2       0.78920    0.44665    0.69548   1.00
H2       0.82583    0.51141    0.61625   1.00
H2       0.85622    0.47065    0.61074   1.00
H2       0.81927    0.48051    0.57622   1.00
H2       0.77839    0.36558    0.51702   1.00
H2       0.79824    0.34463    0.55935   1.00
H2       0.74718    0.35104    0.55535   1.00
H2       0.74740    0.46146    0.55916   1.00
H2       0.74879    0.43221    0.51712   1.00
H2       0.71739    0.41944    0.55585   1.00
H2       0.75947    0.38573    0.70156   1.00
H2       0.71761    0.35837    0.68881   1.00
H2       0.76383    0.34311    0.67334   1.00
H2       0.68190    0.40987    0.65544   1.00
H2       0.71764    0.44342    0.67122   1.00
H2       0.70370    0.44138    0.62157   1.00
C4       0.91781    0.68584    0.41616   1.00
C4       0.91715    0.64412    0.41645   1.00
C3       0.93776    0.70864    0.44443   1.00
C3       0.93331    0.62116    0.44694   1.00
C3       0.89698    0.70623    0.38641   1.00
C3       0.89951    0.62386    0.38462   1.00
C2       0.91615    0.77012    0.41466   1.00
C2       0.91385    0.55988    0.41534   1.00
C3       0.93678    0.74962    0.44386   1.00
C3       0.93204    0.58019    0.44624   1.00
C3       0.89696    0.74758    0.38591   1.00
C3       0.89706    0.58262    0.38529   1.00
H1       0.95369    0.69615    0.46619   1.00
H1       0.94626    0.63352    0.47066   1.00
C5       0.87644    0.68520    0.35725   1.00
C5       0.88411    0.64480    0.35245   1.00
H1       0.95152    0.76455    0.46523   1.00
H1       0.94450    0.56510    0.46892   1.00
H1       0.88279    0.76180    0.36377   1.00
H1       0.88216    0.56868    0.36353   1.00
O3       0.85123    0.70461    0.33266   1.00
O3       0.87406    0.62599    0.31821   1.00
Si1      0.80494    0.70747    0.34362   1.00
Si1      0.90788    0.61779    0.28571   1.00
C6       0.79157    0.74038    0.30631   1.00
C6       0.78436    0.66098    0.33575   1.00
C6       0.79625    0.72753    0.39028   1.00
C6       0.95626    0.63193    0.29669   1.00
C6       0.90595    0.56698    0.27948   1.00
C6       0.89248    0.63977    0.24186   1.00
C6       0.81862    0.77694    0.30130   1.00
H2       0.79605    0.72291    0.28004   1.00
C6       0.74879    0.75647    0.30323   1.00
H2       0.80419    0.64858    0.31415   1.00
C6       0.78376    0.63134    0.37047   1.00
C6       0.74274    0.65836    0.31712   1.00
H2       0.81504    0.75331    0.39010   1.00
C6       0.75401    0.74272    0.39901   1.00
C6       0.80748    0.70349    0.42770   1.00
C6       0.96403    0.67571    0.30696   1.00
C6       0.98079    0.60725    0.32634   1.00
H2       0.97114    0.62712    0.26894   1.00
H2       0.91753    0.55551    0.30683   1.00
C6       0.86422    0.54878    0.27541   1.00
C6       0.93134    0.54893    0.24614   1.00
H2       0.87200    0.61875    0.22946   1.00
C6       0.86873    0.67836    0.24589   1.00
C6       0.92381    0.64744    0.20948   1.00
H2       0.84903    0.76846    0.29686   1.00
H2       0.81730    0.79590    0.32691   1.00
H2       0.81014    0.79417    0.27582   1.00
H2       0.74104    0.76108    0.27262   1.00
H2       0.72724    0.73678    0.31563   1.00
H2       0.74539    0.78464    0.31775   1.00
H2       0.77823    0.60172    0.35994   1.00
H2       0.81155    0.63032    0.38579   1.00
H2       0.76082    0.63852    0.39137   1.00
H2       0.74151    0.67362    0.28920   1.00
H2       0.73463    0.62808    0.31105   1.00
H2       0.72063    0.67050    0.33661   1.00
H2       0.73226    0.72014    0.39330   1.00
H2       0.75065    0.75208    0.42936   1.00
H2       0.74713    0.76832    0.38163   1.00
H2       0.78401    0.68402    0.43692   1.00
H2       0.83332    0.68568    0.42399   1.00
H2       0.81335    0.72328    0.45205   1.00
H2       0.95797    0.68188    0.33755   1.00
H2       0.99465    0.68309    0.30187   1.00
H2       0.94665    0.69548    0.28920   1.00
H2       1.01141    0.61625    0.32583   1.00
H2       0.97065    0.61074    0.35622   1.00
H2       0.98051    0.57622    0.31927   1.00
H2       0.86558    0.51702    0.27839   1.00
H2       0.84463    0.55935    0.29824   1.00
H2       0.85104    0.55535    0.24718   1.00
H2       0.96146    0.55916    0.24740   1.00
H2       0.93221    0.51712    0.24879   1.00
H2       0.91944    0.55585    0.21739   1.00
H2       0.88573    0.70156    0.25947   1.00
H2       0.85837    0.68881    0.21761   1.00
H2       0.84311    0.67334    0.26383   1.00
H2       0.90987    0.65544    0.18190   1.00
H2       0.94342    0.67122    0.21764   1.00
H2       0.94138    0.62157    0.20370   1.00
C4       0.64416    0.41616    0.41219   1.00
C4       0.68588    0.41645    0.41285   1.00
C3       0.62136    0.44443    0.39224   1.00
C3       0.70884    0.44694    0.39669   1.00
C3       0.62377    0.38641    0.43302   1.00
C3       0.70614    0.38462    0.43049   1.00
C2       0.55988    0.41466    0.41385   1.00
C2       0.77012    0.41534    0.41615   1.00
C3       0.58038    0.44386    0.39322   1.00
C3       0.74981    0.44624    0.39796   1.00
C3       0.58242    0.38591    0.43304   1.00
C3       0.74738    0.38529    0.43294   1.00
H1       0.63385    0.46619    0.37631   1.00
H1       0.69648    0.47066    0.38374   1.00
C5       0.64480    0.35725    0.45356   1.00
C5       0.68520    0.35245    0.44589   1.00
H1       0.56545    0.46523    0.37848   1.00
H1       0.76490    0.46892    0.38550   1.00
H1       0.56820    0.36377    0.44721   1.00
H1       0.76132    0.36353    0.44784   1.00
O3       0.62539    0.33266    0.47877   1.00
O3       0.70401    0.31821    0.45594   1.00
Si1      0.62253    0.34362    0.52506   1.00
Si1      0.71221    0.28571    0.42212   1.00
C6       0.58962    0.30631    0.53843   1.00
C6       0.66902    0.33575    0.54564   1.00
C6       0.60247    0.39028    0.53375   1.00
C6       0.69807    0.29669    0.37374   1.00
C6       0.76302    0.27948    0.42405   1.00
C6       0.69023    0.24186    0.43752   1.00
C6       0.55306    0.30130    0.51138   1.00
H2       0.60709    0.28004    0.53395   1.00
C6       0.57353    0.30323    0.58121   1.00
H2       0.68142    0.31415    0.52581   1.00
C6       0.69866    0.37047    0.54624   1.00
C6       0.67164    0.31712    0.58726   1.00
H2       0.57669    0.39010    0.51496   1.00
C6       0.58728    0.39901    0.57599   1.00
C6       0.62651    0.42770    0.52252   1.00
C6       0.65429    0.30696    0.36597   1.00
C6       0.72275    0.32634    0.34921   1.00
H2       0.70288    0.26894    0.35886   1.00
H2       0.77449    0.30683    0.41247   1.00
C6       0.78122    0.27541    0.46578   1.00
C6       0.78107    0.24614    0.39866   1.00
H2       0.71125    0.22946    0.45800   1.00
C6       0.65164    0.24589    0.46127   1.00
C6       0.68256    0.20948    0.40619   1.00
H2       0.56154    0.29686    0.48097   1.00
H2       0.53410    0.32691    0.51270   1.00
H2       0.53583    0.27582    0.51986   1.00
H2       0.56892    0.27262    0.58896   1.00
H2       0.59322    0.31563    0.60276   1.00
H2       0.54536    0.31775    0.58461   1.00
H2       0.72828    0.35994    0.55177   1.00
H2       0.69968    0.38579    0.51845   1.00
H2       0.69148    0.39137    0.56918   1.00
H2       0.65638    0.28920    0.58849   1.00
H2       0.70192    0.31105    0.59537   1.00
H2       0.65950    0.33661    0.60937   1.00
H2       0.60986    0.39330    0.59774   1.00
H2       0.57792    0.42936    0.57935   1.00
H2       0.56168    0.38163    0.58287   1.00
H2       0.64598    0.43692    0.54599   1.00
H2       0.64432    0.42399    0.49668   1.00
H2       0.60672    0.45205    0.51665   1.00
H2       0.64812    0.33755    0.37203   1.00
H2       0.64691    0.30187    0.33535   1.00
H2       0.63452    0.28920    0.38335   1.00
H2       0.71375    0.32583    0.31859   1.00
H2       0.71926    0.35622    0.35935   1.00
H2       0.75378    0.31927    0.34949   1.00
H2       0.81298    0.27839    0.46442   1.00
H2       0.77065    0.29824    0.48537   1.00
H2       0.77465    0.24718    0.47896   1.00
H2       0.77084    0.24740    0.36854   1.00
H2       0.81288    0.24879    0.39779   1.00
H2       0.77415    0.21739    0.41056   1.00
H2       0.62844    0.25947    0.44427   1.00
H2       0.64119    0.21761    0.47163   1.00
H2       0.65666    0.26383    0.48689   1.00
H2       0.67456    0.18190    0.42013   1.00
H2       0.65878    0.21764    0.38658   1.00
H2       0.70843    0.20370    0.38862   1.00
C4       1.18584    0.41616    0.41781   1.00
C4       1.14412    0.41645    0.41715   1.00
C3       1.20864    0.44443    0.43776   1.00
C3       1.12116    0.44694    0.43331   1.00
C3       1.20623    0.38641    0.39698   1.00
C3       1.12386    0.38462    0.39951   1.00
C2       1.27012    0.41466    0.41615   1.00
C2       1.05988    0.41534    0.41385   1.00
C3       1.24962    0.44386    0.43678   1.00
C3       1.08019    0.44624    0.43204   1.00
C3       1.24758    0.38591    0.39696   1.00
C3       1.08262    0.38529    0.39706   1.00
H1       1.19615    0.46619    0.45369   1.00
H1       1.13352    0.47066    0.44626   1.00
C5       1.18520    0.35725    0.37644   1.00
C5       1.14480    0.35245    0.38411   1.00
H1       1.26455    0.46523    0.45152   1.00
H1       1.06510    0.46892    0.44450   1.00
H1       1.26180    0.36377    0.38279   1.00
H1       1.06868    0.36353    0.38216   1.00
O3       1.20461    0.33266    0.35123   1.00
O3       1.12599    0.31821    0.37406   1.00
Si1      1.20747    0.34362    0.30494   1.00
Si1      1.11779    0.28571    0.40788   1.00
C6       1.24038    0.30631    0.29157   1.00
C6       1.16098    0.33575    0.28436   1.00
C6       1.22753    0.39028    0.29625   1.00
C6       1.13193    0.29669    0.45626   1.00
C6       1.06698    0.27948    0.40595   1.00
C6       1.13977    0.24186    0.39248   1.00
C6       1.27694    0.30130    0.31862   1.00
H2       1.22291    0.28004    0.29605   1.00
C6       1.25647    0.30323    0.24879   1.00
H2       1.14858    0.31415    0.30419   1.00
C6       1.13134    0.37047    0.28376   1.00
C6       1.15836    0.31712    0.24274   1.00
H2       1.25331    0.39010    0.31504   1.00
C6       1.24272    0.39901    0.25401   1.00
C6       1.20349    0.42770    0.30748   1.00
C6       1.17571    0.30696    0.46403   1.00
C6       1.10725    0.32634    0.48079   1.00
H2       1.12712    0.26894    0.47114   1.00
H2       1.05551    0.30683    0.41753   1.00
C6       1.04878    0.27541    0.36422   1.00
C6       1.04893    0.24614    0.43134   1.00
H2       1.11875    0.22946    0.37200   1.00
C6       1.17836    0.24589    0.36873   1.00
C6       1.14744    0.20948    0.42381   1.00
H2       1.26846    0.29686    0.34903   1.00
H2       1.29590    0.32691    0.31730   1.00
H2       1.29417    0.27582    0.31014   1.00
H2       1.26108    0.27262    0.24104   1.00
H2       1.23678    0.31563    0.22724   1.00
H2       1.28464    0.31775    0.24539   1.00
H2       1.10172    0.35994    0.27823   1.00
H2       1.13032    0.38579    0.31155   1.00
H2       1.13852    0.39137    0.26082   1.00
H2       1.17362    0.28920    0.24151   1.00
H2       1.12808    0.31105    0.23463   1.00
H2       1.17050    0.33661    0.22063   1.00
H2       1.22014    0.39330    0.23226   1.00
H2       1.25208    0.42936    0.25065   1.00
H2       1.26832    0.38163    0.24713   1.00
H2       1.18402    0.43692    0.28401   1.00
H2       1.18568    0.42399    0.33332   1.00
H2       1.22328    0.45205    0.31335   1.00
H2       1.18188    0.33755    0.45797   1.00
H2       1.18309    0.30187    0.49465   1.00
H2       1.19548    0.28920    0.44665   1.00
H2       1.11625    0.32583    0.51141   1.00
H2       1.11074    0.35622    0.47065   1.00
H2       1.07622    0.31927    0.48051   1.00
H2       1.01702    0.27839    0.36558   1.00
H2       1.05935    0.29824    0.34463   1.00
H2       1.05535    0.24718    0.35104   1.00
H2       1.05916    0.24740    0.46146   1.00
H2       1.01712    0.24879    0.43221   1.00
H2       1.05585    0.21739    0.41944   1.00
H2       1.20156    0.25947    0.38573   1.00
H2       1.18881    0.21761    0.35837   1.00
H2       1.17334    0.26383    0.34311   1.00
H2       1.15544    0.18190    0.40987   1.00
H2       1.17122    0.21764    0.44342   1.00
H2       1.12157    0.20370    0.44138   1.00
C4       0.91219    0.14416    0.41616   1.00
C4       0.91285    0.18588    0.41645   1.00
C3       0.89224    0.12136    0.44443   1.00
C3       0.89669    0.20884    0.44694   1.00
C3       0.93302    0.12377    0.38641   1.00
C3       0.93049    0.20614    0.38462   1.00
C2       0.91385    0.05988    0.41466   1.00
C2       0.91615    0.27012    0.41534   1.00
C3       0.89322    0.08038    0.44386   1.00
C3       0.89796    0.24981    0.44624   1.00
C3       0.93304    0.08242    0.38591   1.00
C3       0.93294    0.24738    0.38529   1.00
H1       0.87631    0.13385    0.46619   1.00
H1       0.88374    0.19648    0.47066   1.00
C5       0.95356    0.14480    0.35725   1.00
C5       0.94589    0.18520    0.35245   1.00
H1       0.87848    0.06545    0.46523   1.00
H1       0.88550    0.26490    0.46892   1.00
H1       0.94721    0.06820    0.36377   1.00
H1       0.94784    0.26132    0.36353   1.00
O3       0.97877    0.12539    0.33266   1.00
O3       0.95594    0.20401    0.31821   1.00
Si1      1.02506    0.12253    0.34362   1.00
Si1      0.92212    0.21221    0.28571   1.00
C6       1.03843    0.08962    0.30631   1.00
C6       1.04564    0.16902    0.33575   1.00
C6       1.03375    0.10247    0.39028   1.00
C6       0.87374    0.19807    0.29669   1.00
C6       0.92405    0.26302    0.27948   1.00
C6       0.93752    0.19023    0.24186   1.00
C6       1.01138    0.05306    0.30130   1.00
H2       1.03395    0.10709    0.28004   1.00
C6       1.08121    0.07353    0.30323   1.00
H2       1.02581    0.18142    0.31415   1.00
C6       1.04624    0.19866    0.37047   1.00
C6       1.08726    0.17164    0.31712   1.00
H2       1.01496    0.07669    0.39010   1.00
C6       1.07599    0.08728    0.39901   1.00
C6       1.02252    0.12651    0.42770   1.00
C6       0.86597    0.15429    0.30696   1.00
C6       0.84921    0.22275    0.32634   1.00
H2       0.85886    0.20288    0.26894   1.00
H2       0.91247    0.27449    0.30683   1.00
C6       0.96578    0.28122    0.27541   1.00
C6       0.89866    0.28107    0.24614   1.00
H2       0.95800    0.21125    0.22946   1.00
C6       0.96127    0.15164    0.24589   1.00
C6       0.90619    0.18256    0.20948   1.00
H2       0.98097    0.06154    0.29686   1.00
H2       1.01270    0.03410    0.32691   1.00
H2       1.01986    0.03583    0.27582   1.00
H2       1.08896    0.06892    0.27262   1.00
H2       1.10276    0.09322    0.31563   1.00
H2       1.08461    0.04536    0.31775   1.00
H2       1.05177    0.22828    0.35994   1.00
H2       1.01845    0.19968    0.38579   1.00
H2       1.06918    0.19148    0.39137   1.00
H2       1.08849    0.15638    0.28920   1.00
H2       1.09537    0.20192    0.31105   1.00
H2       1.10937    0.15950    0.33661   1.00
H2       1.09774    0.10986    0.39330   1.00
H2       1.07935    0.07792    0.42936   1.00
H2       1.08287    0.06168    0.38163   1.00
H2       1.04599    0.14598    0.43692   1.00
H2       0.99668    0.14432    0.42399   1.00
H2       1.01665    0.10672    0.45205   1.00
H2       0.87203    0.14812    0.33755   1.00
H2       0.83535    0.14691    0.30187   1.00
H2       0.88335    0.13452    0.28920   1.00
H2       0.81859    0.21375    0.32583   1.00
H2       0.85935    0.21926    0.35622   1.00
H2       0.84949    0.25378    0.31927   1.00
H2       0.96442    0.31298    0.27839   1.00
H2       0.98537    0.27065    0.29824   1.00
H2       0.97896    0.27465    0.24718   1.00
H2       0.86854    0.27084    0.24740   1.00
H2       0.89779    0.31288    0.24879   1.00
H2       0.91056    0.27415    0.21739   1.00
H2       0.94427    0.12844    0.25947   1.00
H2       0.97163    0.14119    0.21761   1.00
H2       0.98689    0.15666    0.26383   1.00
H2       0.92013    0.17456    0.18190   1.00
H2       0.88658    0.15878    0.21764   1.00
H2       0.88862    0.20843    0.20370   1.00
C4       0.91616    0.41219    0.14416   1.00
C4       0.91645    0.41285    0.18588   1.00
C3       0.94443    0.39224    0.12136   1.00
C3       0.94694    0.39669    0.20884   1.00
C3       0.88641    0.43302    0.12377   1.00
C3       0.88462    0.43049    0.20614   1.00
C2       0.91466    0.41385    0.05988   1.00
C2       0.91534    0.41615    0.27012   1.00
C3       0.94386    0.39322    0.08038   1.00
C3       0.94624    0.39796    0.24981   1.00
C3       0.88591    0.43304    0.08242   1.00
C3       0.88529    0.43294    0.24738   1.00
H1       0.96619    0.37631    0.13385   1.00
H1       0.97066    0.38374    0.19648   1.00
C5       0.85725    0.45356    0.14480   1.00
C5       0.85245    0.44589    0.18520   1.00
H1       0.96523    0.37848    0.06545   1.00
H1       0.96892    0.38550    0.26490   1.00
H1       0.86377    0.44721    0.06820   1.00
H1       0.86353    0.44784    0.26132   1.00
O3       0.83266    0.47877    0.12539   1.00
O3       0.81821    0.45594    0.20401   1.00
Si1      0.84362    0.52506    0.12253   1.00
Si1      0.78571    0.42212    0.21221   1.00
C6       0.80631    0.53843    0.08962   1.00
C6       0.83575    0.54564    0.16902   1.00
C6       0.89028    0.53375    0.10247   1.00
C6       0.79669    0.37374    0.19807   1.00
C6       0.77948    0.42405    0.26302   1.00
C6       0.74186    0.43752    0.19023   1.00
C6       0.80130    0.51138    0.05306   1.00
H2       0.78004    0.53395    0.10709   1.00
C6       0.80323    0.58121    0.07353   1.00
H2       0.81415    0.52581    0.18142   1.00
C6       0.87047    0.54624    0.19866   1.00
C6       0.81712    0.58726    0.17164   1.00
H2       0.89010    0.51496    0.07669   1.00
C6       0.89901    0.57599    0.08728   1.00
C6       0.92770    0.52252    0.12651   1.00
C6       0.80696    0.36597    0.15429   1.00
C6       0.82634    0.34921    0.22275   1.00
H2       0.76894    0.35886    0.20288   1.00
H2       0.80683    0.41247    0.27449   1.00
C6       0.77541    0.46578    0.28122   1.00
C6       0.74614    0.39866    0.28107   1.00
H2       0.72946    0.45800    0.21125   1.00
C6       0.74589    0.46127    0.15164   1.00
C6       0.70948    0.40619    0.18256   1.00
H2       0.79686    0.48097    0.06154   1.00
H2       0.82691    0.51270    0.03410   1.00
H2       0.77582    0.51986    0.03583   1.00
H2       0.77262    0.58896    0.06892   1.00
H2       0.81563    0.60276    0.09322   1.00
H2       0.81775    0.58461    0.04536   1.00
H2       0.85994    0.55177    0.22828   1.00
H2       0.88579    0.51845    0.19968   1.00
H2       0.89137    0.56918    0.19148   1.00
H2       0.78920    0.58849    0.15638   1.00
H2       0.81105    0.59537    0.20192   1.00
H2       0.83661    0.60937    0.15950   1.00
H2       0.89330    0.59774    0.10986   1.00
H2       0.92936    0.57935    0.07792   1.00
H2       0.88163    0.58287    0.06168   1.00
H2       0.93692    0.54599    0.14598   1.00
H2       0.92399    0.49668    0.14432   1.00
H2       0.95205    0.51665    0.10672   1.00
H2       0.83755    0.37203    0.14812   1.00
H2       0.80187    0.33535    0.14691   1.00
H2       0.78920    0.38335    0.13452   1.00
H2       0.82583    0.31859    0.21375   1.00
H2       0.85622    0.35935    0.21926   1.00
H2       0.81927    0.34949    0.25378   1.00
H2       0.77839    0.46442    0.31298   1.00
H2       0.79824    0.48537    0.27065   1.00
H2       0.74718    0.47896    0.27465   1.00
H2       0.74740    0.36854    0.27084   1.00
H2       0.74879    0.39779    0.31288   1.00
H2       0.71739    0.41056    0.27415   1.00
H2       0.75947    0.44427    0.12844   1.00
H2       0.71761    0.47163    0.14119   1.00
H2       0.76383    0.48689    0.15666   1.00
H2       0.68190    0.42013    0.17456   1.00
H2       0.71764    0.38658    0.15878   1.00
H2       0.70370    0.38862    0.20843   1.00
