data_IRMOF10_SG202_interpen_Ligand1cp_label_i.

_audit_creation_method             'generated by an auxiliary program of Tobunporous'

_symmetry_space_group_name_H-M     'P 1'
_symmetry_Int_Tables_number        1
_symmetry_cell_setting             triclinic

_cell_length_a                    34.2800
_cell_length_b                    34.2800
_cell_length_c                    34.2800
_cell_angle_alpha                 90.0000
_cell_angle_beta                  90.0000
_cell_angle_gamma                 90.0000

loop_
_atom_site_label
_atom_site_fract_x
_atom_site_fract_y
_atom_site_fract_z
_atom_site_occupancy
O1       0.75000    0.75000    0.75000   1.00
Zn1      0.71720    0.78280    0.78280   1.00
Zn1      0.78280    0.71720    0.78280   1.00
Zn1      0.78280    0.78280    0.71720   1.00
Zn1      0.71720    0.71720    0.71720   1.00
O2       0.72650    0.77350    0.83820   1.00
O2       0.72650    0.83820    0.77350   1.00
O2       0.66180    0.77350    0.77350   1.00
O2       0.77350    0.72650    0.83820   1.00
O2       0.83820    0.72650    0.77350   1.00
O2       0.77350    0.66180    0.77350   1.00
O2       0.77350    0.83820    0.72650   1.00
O2       0.83820    0.77350    0.72650   1.00
O2       0.77350    0.77350    0.66180   1.00
O2       0.66180    0.72650    0.72650   1.00
O2       0.72650    0.66180    0.72650   1.00
O2       0.72650    0.72650    0.66180   1.00
C1       0.75000    0.75000    0.85520   1.00
C1       0.75000    0.85520    0.75000   1.00
C1       0.64480    0.75000    0.75000   1.00
C1       0.85520    0.75000    0.75000   1.00
C1       0.75000    0.64480    0.75000   1.00
C1       0.75000    0.75000    0.64480   1.00
O1       0.25000    0.25000    0.75000   1.00
Zn1      0.21720    0.28280    0.78280   1.00
Zn1      0.28280    0.21720    0.78280   1.00
Zn1      0.28280    0.28280    0.71720   1.00
Zn1      0.21720    0.21720    0.71720   1.00
O2       0.22650    0.27350    0.83820   1.00
O2       0.22650    0.33820    0.77350   1.00
O2       0.16180    0.27350    0.77350   1.00
O2       0.27350    0.22650    0.83820   1.00
O2       0.33820    0.22650    0.77350   1.00
O2       0.27350    0.16180    0.77350   1.00
O2       0.27350    0.33820    0.72650   1.00
O2       0.33820    0.27350    0.72650   1.00
O2       0.27350    0.27350    0.66180   1.00
O2       0.16180    0.22650    0.72650   1.00
O2       0.22650    0.16180    0.72650   1.00
O2       0.22650    0.22650    0.66180   1.00
C1       0.25000    0.25000    0.85520   1.00
C1       0.25000    0.35520    0.75000   1.00
C1       0.14480    0.25000    0.75000   1.00
C1       0.35520    0.25000    0.75000   1.00
C1       0.25000    0.14480    0.75000   1.00
C1       0.25000    0.25000    0.64480   1.00
O1       0.25000    0.75000    0.25000   1.00
Zn1      0.21720    0.78280    0.28280   1.00
Zn1      0.28280    0.71720    0.28280   1.00
Zn1      0.28280    0.78280    0.21720   1.00
Zn1      0.21720    0.71720    0.21720   1.00
O2       0.22650    0.77350    0.33820   1.00
O2       0.22650    0.83820    0.27350   1.00
O2       0.16180    0.77350    0.27350   1.00
O2       0.27350    0.72650    0.33820   1.00
O2       0.33820    0.72650    0.27350   1.00
O2       0.27350    0.66180    0.27350   1.00
O2       0.27350    0.83820    0.22650   1.00
O2       0.33820    0.77350    0.22650   1.00
O2       0.27350    0.77350    0.16180   1.00
O2       0.16180    0.72650    0.22650   1.00
O2       0.22650    0.66180    0.22650   1.00
O2       0.22650    0.72650    0.16180   1.00
C1       0.25000    0.75000    0.35520   1.00
C1       0.25000    0.85520    0.25000   1.00
C1       0.14480    0.75000    0.25000   1.00
C1       0.35520    0.75000    0.25000   1.00
C1       0.25000    0.64480    0.25000   1.00
C1       0.25000    0.75000    0.14480   1.00
O1       0.75000    0.25000    0.25000   1.00
Zn1      0.71720    0.28280    0.28280   1.00
Zn1      0.78280    0.21720    0.28280   1.00
Zn1      0.78280    0.28280    0.21720   1.00
Zn1      0.71720    0.21720    0.21720   1.00
O2       0.72650    0.27350    0.33820   1.00
O2       0.72650    0.33820    0.27350   1.00
O2       0.66180    0.27350    0.27350   1.00
O2       0.77350    0.22650    0.33820   1.00
O2       0.83820    0.22650    0.27350   1.00
O2       0.77350    0.16180    0.27350   1.00
O2       0.77350    0.33820    0.22650   1.00
O2       0.83820    0.27350    0.22650   1.00
O2       0.77350    0.27350    0.16180   1.00
O2       0.66180    0.22650    0.22650   1.00
O2       0.72650    0.16180    0.22650   1.00
O2       0.72650    0.22650    0.16180   1.00
C1       0.75000    0.25000    0.35520   1.00
C1       0.75000    0.35520    0.25000   1.00
C1       0.64480    0.25000    0.25000   1.00
C1       0.85520    0.25000    0.25000   1.00
C1       0.75000    0.14480    0.25000   1.00
C1       0.75000    0.25000    0.14480   1.00
O1       0.25000    0.25000    0.25000   1.00
Zn1      0.28280    0.21720    0.21720   1.00
Zn1      0.21720    0.28280    0.21720   1.00
Zn1      0.21720    0.21720    0.28280   1.00
Zn1      0.28280    0.28280    0.28280   1.00
O2       0.27350    0.22650    0.16180   1.00
O2       0.27350    0.16180    0.22650   1.00
O2       0.33820    0.22650    0.22650   1.00
O2       0.22650    0.27350    0.16180   1.00
O2       0.16180    0.27350    0.22650   1.00
O2       0.22650    0.33820    0.22650   1.00
O2       0.22650    0.16180    0.27350   1.00
O2       0.16180    0.22650    0.27350   1.00
O2       0.22650    0.22650    0.33820   1.00
O2       0.33820    0.27350    0.27350   1.00
O2       0.27350    0.33820    0.27350   1.00
O2       0.27350    0.27350    0.33820   1.00
C1       0.25000    0.25000    0.14480   1.00
C1       0.25000    0.14480    0.25000   1.00
C1       0.35520    0.25000    0.25000   1.00
C1       0.14480    0.25000    0.25000   1.00
C1       0.25000    0.35520    0.25000   1.00
C1       0.25000    0.25000    0.35520   1.00
O1       0.75000    0.75000    0.25000   1.00
Zn1      0.78280    0.71720    0.21720   1.00
Zn1      0.71720    0.78280    0.21720   1.00
Zn1      0.71720    0.71720    0.28280   1.00
Zn1      0.78280    0.78280    0.28280   1.00
O2       0.77350    0.72650    0.16180   1.00
O2       0.77350    0.66180    0.22650   1.00
O2       0.83820    0.72650    0.22650   1.00
O2       0.72650    0.77350    0.16180   1.00
O2       0.66180    0.77350    0.22650   1.00
O2       0.72650    0.83820    0.22650   1.00
O2       0.72650    0.66180    0.27350   1.00
O2       0.66180    0.72650    0.27350   1.00
O2       0.72650    0.72650    0.33820   1.00
O2       0.83820    0.77350    0.27350   1.00
O2       0.77350    0.83820    0.27350   1.00
O2       0.77350    0.77350    0.33820   1.00
C1       0.75000    0.75000    0.14480   1.00
C1       0.75000    0.64480    0.25000   1.00
C1       0.85520    0.75000    0.25000   1.00
C1       0.64480    0.75000    0.25000   1.00
C1       0.75000    0.85520    0.25000   1.00
C1       0.75000    0.75000    0.35520   1.00
O1       0.75000    0.25000    0.75000   1.00
Zn1      0.78280    0.21720    0.71720   1.00
Zn1      0.71720    0.28280    0.71720   1.00
Zn1      0.71720    0.21720    0.78280   1.00
Zn1      0.78280    0.28280    0.78280   1.00
O2       0.77350    0.22650    0.66180   1.00
O2       0.77350    0.16180    0.72650   1.00
O2       0.83820    0.22650    0.72650   1.00
O2       0.72650    0.27350    0.66180   1.00
O2       0.66180    0.27350    0.72650   1.00
O2       0.72650    0.33820    0.72650   1.00
O2       0.72650    0.16180    0.77350   1.00
O2       0.66180    0.22650    0.77350   1.00
O2       0.72650    0.22650    0.83820   1.00
O2       0.83820    0.27350    0.77350   1.00
O2       0.77350    0.33820    0.77350   1.00
O2       0.77350    0.27350    0.83820   1.00
C1       0.75000    0.25000    0.64480   1.00
C1       0.75000    0.14480    0.75000   1.00
C1       0.85520    0.25000    0.75000   1.00
C1       0.64480    0.25000    0.75000   1.00
C1       0.75000    0.35520    0.75000   1.00
C1       0.75000    0.25000    0.85520   1.00
O1       0.25000    0.75000    0.75000   1.00
Zn1      0.28280    0.71720    0.71720   1.00
Zn1      0.21720    0.78280    0.71720   1.00
Zn1      0.21720    0.71720    0.78280   1.00
Zn1      0.28280    0.78280    0.78280   1.00
O2       0.27350    0.72650    0.66180   1.00
O2       0.27350    0.66180    0.72650   1.00
O2       0.33820    0.72650    0.72650   1.00
O2       0.22650    0.77350    0.66180   1.00
O2       0.16180    0.77350    0.72650   1.00
O2       0.22650    0.83820    0.72650   1.00
O2       0.22650    0.66180    0.77350   1.00
O2       0.16180    0.72650    0.77350   1.00
O2       0.22650    0.72650    0.83820   1.00
O2       0.33820    0.77350    0.77350   1.00
O2       0.27350    0.83820    0.77350   1.00
O2       0.27350    0.77350    0.83820   1.00
C1       0.25000    0.75000    0.64480   1.00
C1       0.25000    0.64480    0.75000   1.00
C1       0.35520    0.75000    0.75000   1.00
C1       0.14480    0.75000    0.75000   1.00
C1       0.25000    0.85520    0.75000   1.00
C1       0.25000    0.75000    0.85520   1.00
O1       0.91500    0.91500    0.91500   1.00
Zn1      0.88220    0.94780    0.94780   1.00
Zn1      0.94780    0.88220    0.94780   1.00
Zn1      0.94780    0.94780    0.88220   1.00
Zn1      0.88220    0.88220    0.88220   1.00
O2       0.89150    0.93850    1.00320   1.00
O2       0.89150    1.00320    0.93850   1.00
O2       0.82680    0.93850    0.93850   1.00
O2       0.93850    0.89150    1.00320   1.00
O2       1.00320    0.89150    0.93850   1.00
O2       0.93850    0.82680    0.93850   1.00
O2       0.93850    1.00320    0.89150   1.00
O2       1.00320    0.93850    0.89150   1.00
O2       0.93850    0.93850    0.82680   1.00
O2       0.82680    0.89150    0.89150   1.00
O2       0.89150    0.82680    0.89150   1.00
O2       0.89150    0.89150    0.82680   1.00
C1       0.91500    0.91500    1.02020   1.00
C1       0.91500    1.02020    0.91500   1.00
C1       0.80980    0.91500    0.91500   1.00
C1       1.02020    0.91500    0.91500   1.00
C1       0.91500    0.80980    0.91500   1.00
C1       0.91500    0.91500    0.80980   1.00
O1       0.41500    0.41500    0.91500   1.00
Zn1      0.38220    0.44780    0.94780   1.00
Zn1      0.44780    0.38220    0.94780   1.00
Zn1      0.44780    0.44780    0.88220   1.00
Zn1      0.38220    0.38220    0.88220   1.00
O2       0.39150    0.43850    1.00320   1.00
O2       0.39150    0.50320    0.93850   1.00
O2       0.32680    0.43850    0.93850   1.00
O2       0.43850    0.39150    1.00320   1.00
O2       0.50320    0.39150    0.93850   1.00
O2       0.43850    0.32680    0.93850   1.00
O2       0.43850    0.50320    0.89150   1.00
O2       0.50320    0.43850    0.89150   1.00
O2       0.43850    0.43850    0.82680   1.00
O2       0.32680    0.39150    0.89150   1.00
O2       0.39150    0.32680    0.89150   1.00
O2       0.39150    0.39150    0.82680   1.00
C1       0.41500    0.41500    1.02020   1.00
C1       0.41500    0.52020    0.91500   1.00
C1       0.30980    0.41500    0.91500   1.00
C1       0.52020    0.41500    0.91500   1.00
C1       0.41500    0.30980    0.91500   1.00
C1       0.41500    0.41500    0.80980   1.00
O1       0.41500    0.91500    0.41500   1.00
Zn1      0.38220    0.94780    0.44780   1.00
Zn1      0.44780    0.88220    0.44780   1.00
Zn1      0.44780    0.94780    0.38220   1.00
Zn1      0.38220    0.88220    0.38220   1.00
O2       0.39150    0.93850    0.50320   1.00
O2       0.39150    1.00320    0.43850   1.00
O2       0.32680    0.93850    0.43850   1.00
O2       0.43850    0.89150    0.50320   1.00
O2       0.50320    0.89150    0.43850   1.00
O2       0.43850    0.82680    0.43850   1.00
O2       0.43850    1.00320    0.39150   1.00
O2       0.50320    0.93850    0.39150   1.00
O2       0.43850    0.93850    0.32680   1.00
O2       0.32680    0.89150    0.39150   1.00
O2       0.39150    0.82680    0.39150   1.00
O2       0.39150    0.89150    0.32680   1.00
C1       0.41500    0.91500    0.52020   1.00
C1       0.41500    1.02020    0.41500   1.00
C1       0.30980    0.91500    0.41500   1.00
C1       0.52020    0.91500    0.41500   1.00
C1       0.41500    0.80980    0.41500   1.00
C1       0.41500    0.91500    0.30980   1.00
O1       0.91500    0.41500    0.41500   1.00
Zn1      0.88220    0.44780    0.44780   1.00
Zn1      0.94780    0.38220    0.44780   1.00
Zn1      0.94780    0.44780    0.38220   1.00
Zn1      0.88220    0.38220    0.38220   1.00
O2       0.89150    0.43850    0.50320   1.00
O2       0.89150    0.50320    0.43850   1.00
O2       0.82680    0.43850    0.43850   1.00
O2       0.93850    0.39150    0.50320   1.00
O2       1.00320    0.39150    0.43850   1.00
O2       0.93850    0.32680    0.43850   1.00
O2       0.93850    0.50320    0.39150   1.00
O2       1.00320    0.43850    0.39150   1.00
O2       0.93850    0.43850    0.32680   1.00
O2       0.82680    0.39150    0.39150   1.00
O2       0.89150    0.32680    0.39150   1.00
O2       0.89150    0.39150    0.32680   1.00
C1       0.91500    0.41500    0.52020   1.00
C1       0.91500    0.52020    0.41500   1.00
C1       0.80980    0.41500    0.41500   1.00
C1       1.02020    0.41500    0.41500   1.00
C1       0.91500    0.30980    0.41500   1.00
C1       0.91500    0.41500    0.30980   1.00
O1       0.41500    0.41500    0.41500   1.00
Zn1      0.44780    0.38220    0.38220   1.00
Zn1      0.38220    0.44780    0.38220   1.00
Zn1      0.38220    0.38220    0.44780   1.00
Zn1      0.44780    0.44780    0.44780   1.00
O2       0.43850    0.39150    0.32680   1.00
O2       0.43850    0.32680    0.39150   1.00
O2       0.50320    0.39150    0.39150   1.00
O2       0.39150    0.43850    0.32680   1.00
O2       0.32680    0.43850    0.39150   1.00
O2       0.39150    0.50320    0.39150   1.00
O2       0.39150    0.32680    0.43850   1.00
O2       0.32680    0.39150    0.43850   1.00
O2       0.39150    0.39150    0.50320   1.00
O2       0.50320    0.43850    0.43850   1.00
O2       0.43850    0.50320    0.43850   1.00
O2       0.43850    0.43850    0.50320   1.00
C1       0.41500    0.41500    0.30980   1.00
C1       0.41500    0.30980    0.41500   1.00
C1       0.52020    0.41500    0.41500   1.00
C1       0.30980    0.41500    0.41500   1.00
C1       0.41500    0.52020    0.41500   1.00
C1       0.41500    0.41500    0.52020   1.00
O1       0.91500    0.91500    0.41500   1.00
Zn1      0.94780    0.88220    0.38220   1.00
Zn1      0.88220    0.94780    0.38220   1.00
Zn1      0.88220    0.88220    0.44780   1.00
Zn1      0.94780    0.94780    0.44780   1.00
O2       0.93850    0.89150    0.32680   1.00
O2       0.93850    0.82680    0.39150   1.00
O2       1.00320    0.89150    0.39150   1.00
O2       0.89150    0.93850    0.32680   1.00
O2       0.82680    0.93850    0.39150   1.00
O2       0.89150    1.00320    0.39150   1.00
O2       0.89150    0.82680    0.43850   1.00
O2       0.82680    0.89150    0.43850   1.00
O2       0.89150    0.89150    0.50320   1.00
O2       1.00320    0.93850    0.43850   1.00
O2       0.93850    1.00320    0.43850   1.00
O2       0.93850    0.93850    0.50320   1.00
C1       0.91500    0.91500    0.30980   1.00
C1       0.91500    0.80980    0.41500   1.00
C1       1.02020    0.91500    0.41500   1.00
C1       0.80980    0.91500    0.41500   1.00
C1       0.91500    1.02020    0.41500   1.00
C1       0.91500    0.91500    0.52020   1.00
O1       0.91500    0.41500    0.91500   1.00
Zn1      0.94780    0.38220    0.88220   1.00
Zn1      0.88220    0.44780    0.88220   1.00
Zn1      0.88220    0.38220    0.94780   1.00
Zn1      0.94780    0.44780    0.94780   1.00
O2       0.93850    0.39150    0.82680   1.00
O2       0.93850    0.32680    0.89150   1.00
O2       1.00320    0.39150    0.89150   1.00
O2       0.89150    0.43850    0.82680   1.00
O2       0.82680    0.43850    0.89150   1.00
O2       0.89150    0.50320    0.89150   1.00
O2       0.89150    0.32680    0.93850   1.00
O2       0.82680    0.39150    0.93850   1.00
O2       0.89150    0.39150    1.00320   1.00
O2       1.00320    0.43850    0.93850   1.00
O2       0.93850    0.50320    0.93850   1.00
O2       0.93850    0.43850    1.00320   1.00
C1       0.91500    0.41500    0.80980   1.00
C1       0.91500    0.30980    0.91500   1.00
C1       1.02020    0.41500    0.91500   1.00
C1       0.80980    0.41500    0.91500   1.00
C1       0.91500    0.52020    0.91500   1.00
C1       0.91500    0.41500    1.02020   1.00
O1       0.41500    0.91500    0.91500   1.00
Zn1      0.44780    0.88220    0.88220   1.00
Zn1      0.38220    0.94780    0.88220   1.00
Zn1      0.38220    0.88220    0.94780   1.00
Zn1      0.44780    0.94780    0.94780   1.00
O2       0.43850    0.89150    0.82680   1.00
O2       0.43850    0.82680    0.89150   1.00
O2       0.50320    0.89150    0.89150   1.00
O2       0.39150    0.93850    0.82680   1.00
O2       0.32680    0.93850    0.89150   1.00
O2       0.39150    1.00320    0.89150   1.00
O2       0.39150    0.82680    0.93850   1.00
O2       0.32680    0.89150    0.93850   1.00
O2       0.39150    0.89150    1.00320   1.00
O2       0.50320    0.93850    0.93850   1.00
O2       0.43850    1.00320    0.93850   1.00
O2       0.43850    0.93850    1.00320   1.00
C1       0.41500    0.91500    0.80980   1.00
C1       0.41500    0.80980    0.91500   1.00
C1       0.52020    0.91500    0.91500   1.00
C1       0.30980    0.91500    0.91500   1.00
C1       0.41500    1.02020    0.91500   1.00
C1       0.41500    0.91500    1.02020   1.00
C2       0.75154    0.75256    0.89757   1.00
C3a      0.78212    0.76942    0.91884   1.00
H1       0.80622    0.78324    0.90369   1.00
C3a      0.72035    0.73468    0.91704   1.00
H1       0.69673    0.72166    0.90051   1.00
C3b      0.78185    0.76860    0.95938   1.00
C5       0.81519    0.78700    0.98144   1.00
H2       0.82990    0.76481    0.99984   1.00
H2       0.83737    0.79981    0.96161   1.00
H2       0.80411    0.81062    1.00060   1.00
C3b      0.71940    0.73348    0.95756   1.00
C5       0.68543    0.71402    0.97767   1.00
H2       0.67015    0.73528    0.99670   1.00
H2       0.66387    0.70223    0.95655   1.00
H2       0.69594    0.68947    0.99594   1.00
C4       0.75032    0.75053    0.97873   1.00
C4       0.74968    0.74947    1.02127   1.00
C3b      0.76695    0.71774    1.04101   1.00
C5       0.78622    0.68461    1.01937   1.00
H2       0.81058    0.69586    1.00129   1.00
H2       0.79822    0.66223    1.03949   1.00
H2       0.76477    0.67010    0.99995   1.00
C3b      0.73180    0.78019    1.04204   1.00
C5       0.71317    0.81437    1.02152   1.00
H2       0.68937    0.80405    1.00217   1.00
H2       0.70055    0.83573    1.04235   1.00
H2       0.73517    0.82982    1.00350   1.00
C3a      0.76615    0.71706    1.08155   1.00
H1       0.77934    0.69281    1.09700   1.00
C3a      0.73138    0.77883    1.08257   1.00
H1       0.71771    0.80229    1.09881   1.00
C2       0.74846    0.74744    1.10243   1.00
C2       0.75256    0.89757    0.75154   1.00
C3a      0.76942    0.91884    0.78212   1.00
H1       0.78324    0.90369    0.80622   1.00
C3a      0.73468    0.91704    0.72035   1.00
H1       0.72166    0.90051    0.69673   1.00
C3b      0.76860    0.95938    0.78185   1.00
C5       0.78700    0.98144    0.81519   1.00
H2       0.76481    0.99984    0.82990   1.00
H2       0.79981    0.96161    0.83737   1.00
H2       0.81062    1.00060    0.80411   1.00
C3b      0.73348    0.95756    0.71940   1.00
C5       0.71402    0.97767    0.68543   1.00
H2       0.73528    0.99670    0.67015   1.00
H2       0.70223    0.95655    0.66387   1.00
H2       0.68947    0.99594    0.69594   1.00
C4       0.75053    0.97873    0.75032   1.00
C4       0.74947    1.02127    0.74968   1.00
C3b      0.71774    1.04101    0.76695   1.00
C5       0.68461    1.01937    0.78622   1.00
H2       0.69586    1.00129    0.81058   1.00
H2       0.66223    1.03949    0.79822   1.00
H2       0.67010    0.99995    0.76477   1.00
C3b      0.78019    1.04204    0.73180   1.00
C5       0.81437    1.02152    0.71317   1.00
H2       0.80405    1.00217    0.68937   1.00
H2       0.83573    1.04235    0.70055   1.00
H2       0.82982    1.00350    0.73517   1.00
C3a      0.71706    1.08155    0.76615   1.00
H1       0.69281    1.09700    0.77934   1.00
C3a      0.77883    1.08257    0.73138   1.00
H1       0.80229    1.09881    0.71771   1.00
C2       0.74744    1.10243    0.74846   1.00
C2       0.60243    0.75154    0.74744   1.00
C3a      0.58116    0.78212    0.73058   1.00
H1       0.59631    0.80622    0.71676   1.00
C3a      0.58296    0.72035    0.76532   1.00
H1       0.59949    0.69673    0.77834   1.00
C3b      0.54062    0.78185    0.73140   1.00
C5       0.51856    0.81519    0.71300   1.00
H2       0.50016    0.82990    0.73519   1.00
H2       0.53839    0.83737    0.70019   1.00
H2       0.49940    0.80411    0.68938   1.00
C3b      0.54244    0.71940    0.76652   1.00
C5       0.52233    0.68543    0.78598   1.00
H2       0.50330    0.67015    0.76472   1.00
H2       0.54345    0.66387    0.79777   1.00
H2       0.50406    0.69594    0.81053   1.00
C4       0.52127    0.75032    0.74947   1.00
C4       0.47873    0.74968    0.75053   1.00
C3b      0.45899    0.76695    0.78226   1.00
C5       0.48063    0.78622    0.81539   1.00
H2       0.49871    0.81058    0.80414   1.00
H2       0.46051    0.79822    0.83777   1.00
H2       0.50005    0.76477    0.82990   1.00
C3b      0.45796    0.73180    0.71981   1.00
C5       0.47848    0.71317    0.68563   1.00
H2       0.49783    0.68937    0.69595   1.00
H2       0.45765    0.70055    0.66427   1.00
H2       0.49650    0.73517    0.67018   1.00
C3a      0.41845    0.76615    0.78294   1.00
H1       0.40300    0.77934    0.80719   1.00
C3a      0.41743    0.73138    0.72117   1.00
H1       0.40119    0.71771    0.69771   1.00
C2       0.39757    0.74846    0.75256   1.00
C2       0.89757    0.75154    0.75256   1.00
C3a      0.91884    0.78212    0.76942   1.00
H1       0.90369    0.80622    0.78324   1.00
C3a      0.91704    0.72035    0.73468   1.00
H1       0.90051    0.69673    0.72166   1.00
C3b      0.95938    0.78185    0.76860   1.00
C5       0.98144    0.81519    0.78700   1.00
H2       0.99984    0.82990    0.76481   1.00
H2       0.96161    0.83737    0.79981   1.00
H2       1.00060    0.80411    0.81062   1.00
C3b      0.95756    0.71940    0.73348   1.00
C5       0.97767    0.68543    0.71402   1.00
H2       0.99670    0.67015    0.73528   1.00
H2       0.95655    0.66387    0.70223   1.00
H2       0.99594    0.69594    0.68947   1.00
C4       0.97873    0.75032    0.75053   1.00
C4       1.02127    0.74968    0.74947   1.00
C3b      1.04101    0.76695    0.71774   1.00
C5       1.01937    0.78622    0.68461   1.00
H2       1.00129    0.81058    0.69586   1.00
H2       1.03949    0.79822    0.66223   1.00
H2       0.99995    0.76477    0.67010   1.00
C3b      1.04204    0.73180    0.78019   1.00
C5       1.02152    0.71317    0.81437   1.00
H2       1.00217    0.68937    0.80405   1.00
H2       1.04235    0.70055    0.83573   1.00
H2       1.00350    0.73517    0.82982   1.00
C3a      1.08155    0.76615    0.71706   1.00
H1       1.09700    0.77934    0.69281   1.00
C3a      1.08257    0.73138    0.77883   1.00
H1       1.09881    0.71771    0.80229   1.00
C2       1.10243    0.74846    0.74744   1.00
C2       0.74744    0.60243    0.75154   1.00
C3a      0.73058    0.58116    0.78212   1.00
H1       0.71676    0.59631    0.80622   1.00
C3a      0.76532    0.58296    0.72035   1.00
H1       0.77834    0.59949    0.69673   1.00
C3b      0.73140    0.54062    0.78185   1.00
C5       0.71300    0.51856    0.81519   1.00
H2       0.73519    0.50016    0.82990   1.00
H2       0.70019    0.53839    0.83737   1.00
H2       0.68938    0.49940    0.80411   1.00
C3b      0.76652    0.54244    0.71940   1.00
C5       0.78598    0.52233    0.68543   1.00
H2       0.76472    0.50330    0.67015   1.00
H2       0.79777    0.54345    0.66387   1.00
H2       0.81053    0.50406    0.69594   1.00
C4       0.74947    0.52127    0.75032   1.00
C4       0.75053    0.47873    0.74968   1.00
C3b      0.78226    0.45899    0.76695   1.00
C5       0.81539    0.48063    0.78622   1.00
H2       0.80414    0.49871    0.81058   1.00
H2       0.83777    0.46051    0.79822   1.00
H2       0.82990    0.50005    0.76477   1.00
C3b      0.71981    0.45796    0.73180   1.00
C5       0.68563    0.47848    0.71317   1.00
H2       0.69595    0.49783    0.68937   1.00
H2       0.66427    0.45765    0.70055   1.00
H2       0.67018    0.49650    0.73517   1.00
C3a      0.78294    0.41845    0.76615   1.00
H1       0.80719    0.40300    0.77934   1.00
C3a      0.72117    0.41743    0.73138   1.00
H1       0.69771    0.40119    0.71771   1.00
C2       0.75256    0.39757    0.74846   1.00
C2       0.75154    0.74744    0.60243   1.00
C3a      0.78212    0.73058    0.58116   1.00
H1       0.80622    0.71676    0.59631   1.00
C3a      0.72035    0.76532    0.58296   1.00
H1       0.69673    0.77834    0.59949   1.00
C3b      0.78185    0.73140    0.54062   1.00
C5       0.81519    0.71300    0.51856   1.00
H2       0.82990    0.73519    0.50016   1.00
H2       0.83737    0.70019    0.53839   1.00
H2       0.80411    0.68938    0.49940   1.00
C3b      0.71940    0.76652    0.54244   1.00
C5       0.68543    0.78598    0.52233   1.00
H2       0.67015    0.76472    0.50330   1.00
H2       0.66387    0.79777    0.54345   1.00
H2       0.69594    0.81053    0.50406   1.00
C4       0.75032    0.74947    0.52127   1.00
C4       0.74968    0.75053    0.47873   1.00
C3b      0.76695    0.78226    0.45899   1.00
C5       0.78622    0.81539    0.48063   1.00
H2       0.81058    0.80414    0.49871   1.00
H2       0.79822    0.83777    0.46051   1.00
H2       0.76477    0.82990    0.50005   1.00
C3b      0.73180    0.71981    0.45796   1.00
C5       0.71317    0.68563    0.47848   1.00
H2       0.68937    0.69595    0.49783   1.00
H2       0.70055    0.66427    0.45765   1.00
H2       0.73517    0.67018    0.49650   1.00
C3a      0.76615    0.78294    0.41845   1.00
H1       0.77934    0.80719    0.40300   1.00
C3a      0.73138    0.72117    0.41743   1.00
H1       0.71771    0.69771    0.40119   1.00
C2       0.74846    0.75256    0.39757   1.00
C2       0.25154    0.25256    0.89757   1.00
C3a      0.28212    0.26942    0.91884   1.00
H1       0.30622    0.28324    0.90369   1.00
C3a      0.22035    0.23468    0.91704   1.00
H1       0.19673    0.22166    0.90051   1.00
C3b      0.28185    0.26860    0.95938   1.00
C5       0.31519    0.28700    0.98144   1.00
H2       0.32990    0.26481    0.99984   1.00
H2       0.33737    0.29981    0.96161   1.00
H2       0.30411    0.31062    1.00060   1.00
C3b      0.21940    0.23348    0.95756   1.00
C5       0.18543    0.21402    0.97767   1.00
H2       0.17015    0.23528    0.99670   1.00
H2       0.16387    0.20223    0.95655   1.00
H2       0.19594    0.18947    0.99594   1.00
C4       0.25032    0.25053    0.97873   1.00
C4       0.24968    0.24947    1.02127   1.00
C3b      0.26695    0.21774    1.04101   1.00
C5       0.28622    0.18461    1.01937   1.00
H2       0.31058    0.19586    1.00129   1.00
H2       0.29822    0.16223    1.03949   1.00
H2       0.26477    0.17010    0.99995   1.00
C3b      0.23180    0.28019    1.04204   1.00
C5       0.21317    0.31437    1.02152   1.00
H2       0.18937    0.30405    1.00217   1.00
H2       0.20055    0.33573    1.04235   1.00
H2       0.23517    0.32982    1.00350   1.00
C3a      0.26615    0.21706    1.08155   1.00
H1       0.27934    0.19281    1.09700   1.00
C3a      0.23138    0.27883    1.08257   1.00
H1       0.21771    0.30229    1.09881   1.00
C2       0.24846    0.24744    1.10243   1.00
C2       0.25256    0.39757    0.75154   1.00
C3a      0.26942    0.41884    0.78212   1.00
H1       0.28324    0.40369    0.80622   1.00
C3a      0.23468    0.41704    0.72035   1.00
H1       0.22166    0.40051    0.69673   1.00
C3b      0.26860    0.45938    0.78185   1.00
C5       0.28700    0.48144    0.81519   1.00
H2       0.26481    0.49984    0.82990   1.00
H2       0.29981    0.46161    0.83737   1.00
H2       0.31062    0.50060    0.80411   1.00
C3b      0.23348    0.45756    0.71940   1.00
C5       0.21402    0.47767    0.68543   1.00
H2       0.23528    0.49670    0.67015   1.00
H2       0.20223    0.45655    0.66387   1.00
H2       0.18947    0.49594    0.69594   1.00
C4       0.25053    0.47873    0.75032   1.00
C4       0.24947    0.52127    0.74968   1.00
C3b      0.21774    0.54101    0.76695   1.00
C5       0.18461    0.51937    0.78622   1.00
H2       0.19586    0.50129    0.81058   1.00
H2       0.16223    0.53949    0.79822   1.00
H2       0.17010    0.49995    0.76477   1.00
C3b      0.28019    0.54204    0.73180   1.00
C5       0.31437    0.52152    0.71317   1.00
H2       0.30405    0.50217    0.68937   1.00
H2       0.33573    0.54235    0.70055   1.00
H2       0.32982    0.50350    0.73517   1.00
C3a      0.21706    0.58155    0.76615   1.00
H1       0.19281    0.59700    0.77934   1.00
C3a      0.27883    0.58257    0.73138   1.00
H1       0.30229    0.59881    0.71771   1.00
C2       0.24744    0.60243    0.74846   1.00
C2       0.10243    0.25154    0.74744   1.00
C3a      0.08116    0.28212    0.73058   1.00
H1       0.09631    0.30622    0.71676   1.00
C3a      0.08296    0.22035    0.76532   1.00
H1       0.09949    0.19673    0.77834   1.00
C3b      0.04062    0.28185    0.73140   1.00
C5       0.01856    0.31519    0.71300   1.00
H2       0.00016    0.32990    0.73519   1.00
H2       0.03839    0.33737    0.70019   1.00
H2       -0.00060   0.30411    0.68938   1.00
C3b      0.04244    0.21940    0.76652   1.00
C5       0.02233    0.18543    0.78598   1.00
H2       0.00330    0.17015    0.76472   1.00
H2       0.04345    0.16387    0.79777   1.00
H2       0.00406    0.19594    0.81053   1.00
C4       0.02127    0.25032    0.74947   1.00
C4       -0.02127   0.24968    0.75053   1.00
C3b      -0.04101   0.26695    0.78226   1.00
C5       -0.01937   0.28622    0.81539   1.00
H2       -0.00129   0.31058    0.80414   1.00
H2       -0.03949   0.29822    0.83777   1.00
H2       0.00005    0.26477    0.82990   1.00
C3b      -0.04204   0.23180    0.71981   1.00
C5       -0.02152   0.21317    0.68563   1.00
H2       -0.00217   0.18937    0.69595   1.00
H2       -0.04235   0.20055    0.66427   1.00
H2       -0.00350   0.23517    0.67018   1.00
C3a      -0.08155   0.26615    0.78294   1.00
H1       -0.09700   0.27934    0.80719   1.00
C3a      -0.08257   0.23138    0.72117   1.00
H1       -0.09881   0.21771    0.69771   1.00
C2       -0.10243   0.24846    0.75256   1.00
C2       0.39757    0.25154    0.75256   1.00
C3a      0.41884    0.28212    0.76942   1.00
H1       0.40369    0.30622    0.78324   1.00
C3a      0.41704    0.22035    0.73468   1.00
H1       0.40051    0.19673    0.72166   1.00
C3b      0.45938    0.28185    0.76860   1.00
C5       0.48144    0.31519    0.78700   1.00
H2       0.49984    0.32990    0.76481   1.00
H2       0.46161    0.33737    0.79981   1.00
H2       0.50060    0.30411    0.81062   1.00
C3b      0.45756    0.21940    0.73348   1.00
C5       0.47767    0.18543    0.71402   1.00
H2       0.49670    0.17015    0.73528   1.00
H2       0.45655    0.16387    0.70223   1.00
H2       0.49594    0.19594    0.68947   1.00
C4       0.47873    0.25032    0.75053   1.00
C4       0.52127    0.24968    0.74947   1.00
C3b      0.54101    0.26695    0.71774   1.00
C5       0.51937    0.28622    0.68461   1.00
H2       0.50129    0.31058    0.69586   1.00
H2       0.53949    0.29822    0.66223   1.00
H2       0.49995    0.26477    0.67010   1.00
C3b      0.54204    0.23180    0.78019   1.00
C5       0.52152    0.21317    0.81437   1.00
H2       0.50217    0.18937    0.80405   1.00
H2       0.54235    0.20055    0.83573   1.00
H2       0.50350    0.23517    0.82982   1.00
C3a      0.58155    0.26615    0.71706   1.00
H1       0.59700    0.27934    0.69281   1.00
C3a      0.58257    0.23138    0.77883   1.00
H1       0.59881    0.21771    0.80229   1.00
C2       0.60243    0.24846    0.74744   1.00
C2       0.24744    0.10243    0.75154   1.00
C3a      0.23058    0.08116    0.78212   1.00
H1       0.21676    0.09631    0.80622   1.00
C3a      0.26532    0.08296    0.72035   1.00
H1       0.27834    0.09949    0.69673   1.00
C3b      0.23140    0.04062    0.78185   1.00
C5       0.21300    0.01856    0.81519   1.00
H2       0.23519    0.00016    0.82990   1.00
H2       0.20019    0.03839    0.83737   1.00
H2       0.18938    -0.00060   0.80411   1.00
C3b      0.26652    0.04244    0.71940   1.00
C5       0.28598    0.02233    0.68543   1.00
H2       0.26472    0.00330    0.67015   1.00
H2       0.29777    0.04345    0.66387   1.00
H2       0.31053    0.00406    0.69594   1.00
C4       0.24947    0.02127    0.75032   1.00
C4       0.25053    -0.02127   0.74968   1.00
C3b      0.28226    -0.04101   0.76695   1.00
C5       0.31539    -0.01937   0.78622   1.00
H2       0.30414    -0.00129   0.81058   1.00
H2       0.33777    -0.03949   0.79822   1.00
H2       0.32990    0.00005    0.76477   1.00
C3b      0.21981    -0.04204   0.73180   1.00
C5       0.18563    -0.02152   0.71317   1.00
H2       0.19595    -0.00217   0.68937   1.00
H2       0.16427    -0.04235   0.70055   1.00
H2       0.17018    -0.00350   0.73517   1.00
C3a      0.28294    -0.08155   0.76615   1.00
H1       0.30719    -0.09700   0.77934   1.00
C3a      0.22117    -0.08257   0.73138   1.00
H1       0.19771    -0.09881   0.71771   1.00
C2       0.25256    -0.10243   0.74846   1.00
C2       0.25154    0.24744    0.60243   1.00
C3a      0.28212    0.23058    0.58116   1.00
H1       0.30622    0.21676    0.59631   1.00
C3a      0.22035    0.26532    0.58296   1.00
H1       0.19673    0.27834    0.59949   1.00
C3b      0.28185    0.23140    0.54062   1.00
C5       0.31519    0.21300    0.51856   1.00
H2       0.32990    0.23519    0.50016   1.00
H2       0.33737    0.20019    0.53839   1.00
H2       0.30411    0.18938    0.49940   1.00
C3b      0.21940    0.26652    0.54244   1.00
C5       0.18543    0.28598    0.52233   1.00
H2       0.17015    0.26472    0.50330   1.00
H2       0.16387    0.29777    0.54345   1.00
H2       0.19594    0.31053    0.50406   1.00
C4       0.25032    0.24947    0.52127   1.00
C4       0.24968    0.25053    0.47873   1.00
C3b      0.26695    0.28226    0.45899   1.00
C5       0.28622    0.31539    0.48063   1.00
H2       0.31058    0.30414    0.49871   1.00
H2       0.29822    0.33777    0.46051   1.00
H2       0.26477    0.32990    0.50005   1.00
C3b      0.23180    0.21981    0.45796   1.00
C5       0.21317    0.18563    0.47848   1.00
H2       0.18937    0.19595    0.49783   1.00
H2       0.20055    0.16427    0.45765   1.00
H2       0.23517    0.17018    0.49650   1.00
C3a      0.26615    0.28294    0.41845   1.00
H1       0.27934    0.30719    0.40300   1.00
C3a      0.23138    0.22117    0.41743   1.00
H1       0.21771    0.19771    0.40119   1.00
C2       0.24846    0.25256    0.39757   1.00
C2       0.25154    0.75256    0.39757   1.00
C3a      0.28212    0.76942    0.41884   1.00
H1       0.30622    0.78324    0.40369   1.00
C3a      0.22035    0.73468    0.41704   1.00
H1       0.19673    0.72166    0.40051   1.00
C3b      0.28185    0.76860    0.45938   1.00
C5       0.31519    0.78700    0.48144   1.00
H2       0.32990    0.76481    0.49984   1.00
H2       0.33737    0.79981    0.46161   1.00
H2       0.30411    0.81062    0.50060   1.00
C3b      0.21940    0.73348    0.45756   1.00
C5       0.18543    0.71402    0.47767   1.00
H2       0.17015    0.73528    0.49670   1.00
H2       0.16387    0.70223    0.45655   1.00
H2       0.19594    0.68947    0.49594   1.00
C4       0.25032    0.75053    0.47873   1.00
C4       0.24968    0.74947    0.52127   1.00
C3b      0.26695    0.71774    0.54101   1.00
C5       0.28622    0.68461    0.51937   1.00
H2       0.31058    0.69586    0.50129   1.00
H2       0.29822    0.66223    0.53949   1.00
H2       0.26477    0.67010    0.49995   1.00
C3b      0.23180    0.78019    0.54204   1.00
C5       0.21317    0.81437    0.52152   1.00
H2       0.18937    0.80405    0.50217   1.00
H2       0.20055    0.83573    0.54235   1.00
H2       0.23517    0.82982    0.50350   1.00
C3a      0.26615    0.71706    0.58155   1.00
H1       0.27934    0.69281    0.59700   1.00
C3a      0.23138    0.77883    0.58257   1.00
H1       0.21771    0.80229    0.59881   1.00
C2       0.24846    0.74744    0.60243   1.00
C2       0.25256    0.89757    0.25154   1.00
C3a      0.26942    0.91884    0.28212   1.00
H1       0.28324    0.90369    0.30622   1.00
C3a      0.23468    0.91704    0.22035   1.00
H1       0.22166    0.90051    0.19673   1.00
C3b      0.26860    0.95938    0.28185   1.00
C5       0.28700    0.98144    0.31519   1.00
H2       0.26481    0.99984    0.32990   1.00
H2       0.29981    0.96161    0.33737   1.00
H2       0.31062    1.00060    0.30411   1.00
C3b      0.23348    0.95756    0.21940   1.00
C5       0.21402    0.97767    0.18543   1.00
H2       0.23528    0.99670    0.17015   1.00
H2       0.20223    0.95655    0.16387   1.00
H2       0.18947    0.99594    0.19594   1.00
C4       0.25053    0.97873    0.25032   1.00
C4       0.24947    1.02127    0.24968   1.00
C3b      0.21774    1.04101    0.26695   1.00
C5       0.18461    1.01937    0.28622   1.00
H2       0.19586    1.00129    0.31058   1.00
H2       0.16223    1.03949    0.29822   1.00
H2       0.17010    0.99995    0.26477   1.00
C3b      0.28019    1.04204    0.23180   1.00
C5       0.31437    1.02152    0.21317   1.00
H2       0.30405    1.00217    0.18937   1.00
H2       0.33573    1.04235    0.20055   1.00
H2       0.32982    1.00350    0.23517   1.00
C3a      0.21706    1.08155    0.26615   1.00
H1       0.19281    1.09700    0.27934   1.00
C3a      0.27883    1.08257    0.23138   1.00
H1       0.30229    1.09881    0.21771   1.00
C2       0.24744    1.10243    0.24846   1.00
C2       0.10243    0.75154    0.24744   1.00
C3a      0.08116    0.78212    0.23058   1.00
H1       0.09631    0.80622    0.21676   1.00
C3a      0.08296    0.72035    0.26532   1.00
H1       0.09949    0.69673    0.27834   1.00
C3b      0.04062    0.78185    0.23140   1.00
C5       0.01856    0.81519    0.21300   1.00
H2       0.00016    0.82990    0.23519   1.00
H2       0.03839    0.83737    0.20019   1.00
H2       -0.00060   0.80411    0.18938   1.00
C3b      0.04244    0.71940    0.26652   1.00
C5       0.02233    0.68543    0.28598   1.00
H2       0.00330    0.67015    0.26472   1.00
H2       0.04345    0.66387    0.29777   1.00
H2       0.00406    0.69594    0.31053   1.00
C4       0.02127    0.75032    0.24947   1.00
C4       -0.02127   0.74968    0.25053   1.00
C3b      -0.04101   0.76695    0.28226   1.00
C5       -0.01937   0.78622    0.31539   1.00
H2       -0.00129   0.81058    0.30414   1.00
H2       -0.03949   0.79822    0.33777   1.00
H2       0.00005    0.76477    0.32990   1.00
C3b      -0.04204   0.73180    0.21981   1.00
C5       -0.02152   0.71317    0.18563   1.00
H2       -0.00217   0.68937    0.19595   1.00
H2       -0.04235   0.70055    0.16427   1.00
H2       -0.00350   0.73517    0.17018   1.00
C3a      -0.08155   0.76615    0.28294   1.00
H1       -0.09700   0.77934    0.30719   1.00
C3a      -0.08257   0.73138    0.22117   1.00
H1       -0.09881   0.71771    0.19771   1.00
C2       -0.10243   0.74846    0.25256   1.00
C2       0.39757    0.75154    0.25256   1.00
C3a      0.41884    0.78212    0.26942   1.00
H1       0.40369    0.80622    0.28324   1.00
C3a      0.41704    0.72035    0.23468   1.00
H1       0.40051    0.69673    0.22166   1.00
C3b      0.45938    0.78185    0.26860   1.00
C5       0.48144    0.81519    0.28700   1.00
H2       0.49984    0.82990    0.26481   1.00
H2       0.46161    0.83737    0.29981   1.00
H2       0.50060    0.80411    0.31062   1.00
C3b      0.45756    0.71940    0.23348   1.00
C5       0.47767    0.68543    0.21402   1.00
H2       0.49670    0.67015    0.23528   1.00
H2       0.45655    0.66387    0.20223   1.00
H2       0.49594    0.69594    0.18947   1.00
C4       0.47873    0.75032    0.25053   1.00
C4       0.52127    0.74968    0.24947   1.00
C3b      0.54101    0.76695    0.21774   1.00
C5       0.51937    0.78622    0.18461   1.00
H2       0.50129    0.81058    0.19586   1.00
H2       0.53949    0.79822    0.16223   1.00
H2       0.49995    0.76477    0.17010   1.00
C3b      0.54204    0.73180    0.28019   1.00
C5       0.52152    0.71317    0.31437   1.00
H2       0.50217    0.68937    0.30405   1.00
H2       0.54235    0.70055    0.33573   1.00
H2       0.50350    0.73517    0.32982   1.00
C3a      0.58155    0.76615    0.21706   1.00
H1       0.59700    0.77934    0.19281   1.00
C3a      0.58257    0.73138    0.27883   1.00
H1       0.59881    0.71771    0.30229   1.00
C2       0.60243    0.74846    0.24744   1.00
C2       0.24744    0.60243    0.25154   1.00
C3a      0.23058    0.58116    0.28212   1.00
H1       0.21676    0.59631    0.30622   1.00
C3a      0.26532    0.58296    0.22035   1.00
H1       0.27834    0.59949    0.19673   1.00
C3b      0.23140    0.54062    0.28185   1.00
C5       0.21300    0.51856    0.31519   1.00
H2       0.23519    0.50016    0.32990   1.00
H2       0.20019    0.53839    0.33737   1.00
H2       0.18938    0.49940    0.30411   1.00
C3b      0.26652    0.54244    0.21940   1.00
C5       0.28598    0.52233    0.18543   1.00
H2       0.26472    0.50330    0.17015   1.00
H2       0.29777    0.54345    0.16387   1.00
H2       0.31053    0.50406    0.19594   1.00
C4       0.24947    0.52127    0.25032   1.00
C4       0.25053    0.47873    0.24968   1.00
C3b      0.28226    0.45899    0.26695   1.00
C5       0.31539    0.48063    0.28622   1.00
H2       0.30414    0.49871    0.31058   1.00
H2       0.33777    0.46051    0.29822   1.00
H2       0.32990    0.50005    0.26477   1.00
C3b      0.21981    0.45796    0.23180   1.00
C5       0.18563    0.47848    0.21317   1.00
H2       0.19595    0.49783    0.18937   1.00
H2       0.16427    0.45765    0.20055   1.00
H2       0.17018    0.49650    0.23517   1.00
C3a      0.28294    0.41845    0.26615   1.00
H1       0.30719    0.40300    0.27934   1.00
C3a      0.22117    0.41743    0.23138   1.00
H1       0.19771    0.40119    0.21771   1.00
C2       0.25256    0.39757    0.24846   1.00
C2       0.25154    0.74744    0.10243   1.00
C3a      0.28212    0.73058    0.08116   1.00
H1       0.30622    0.71676    0.09631   1.00
C3a      0.22035    0.76532    0.08296   1.00
H1       0.19673    0.77834    0.09949   1.00
C3b      0.28185    0.73140    0.04062   1.00
C5       0.31519    0.71300    0.01856   1.00
H2       0.32990    0.73519    0.00016   1.00
H2       0.33737    0.70019    0.03839   1.00
H2       0.30411    0.68938    -0.00060   1.00
C3b      0.21940    0.76652    0.04244   1.00
C5       0.18543    0.78598    0.02233   1.00
H2       0.17015    0.76472    0.00330   1.00
H2       0.16387    0.79777    0.04345   1.00
H2       0.19594    0.81053    0.00406   1.00
C4       0.25032    0.74947    0.02127   1.00
C4       0.24968    0.75053    -0.02127   1.00
C3b      0.26695    0.78226    -0.04101   1.00
C5       0.28622    0.81539    -0.01937   1.00
H2       0.31058    0.80414    -0.00129   1.00
H2       0.29822    0.83777    -0.03949   1.00
H2       0.26477    0.82990    0.00005   1.00
C3b      0.23180    0.71981    -0.04204   1.00
C5       0.21317    0.68563    -0.02152   1.00
H2       0.18937    0.69595    -0.00217   1.00
H2       0.20055    0.66427    -0.04235   1.00
H2       0.23517    0.67018    -0.00350   1.00
C3a      0.26615    0.78294    -0.08155   1.00
H1       0.27934    0.80719    -0.09700   1.00
C3a      0.23138    0.72117    -0.08257   1.00
H1       0.21771    0.69771    -0.09881   1.00
C2       0.24846    0.75256    -0.10243   1.00
C2       0.75154    0.25256    0.39757   1.00
C3a      0.78212    0.26942    0.41884   1.00
H1       0.80622    0.28324    0.40369   1.00
C3a      0.72035    0.23468    0.41704   1.00
H1       0.69673    0.22166    0.40051   1.00
C3b      0.78185    0.26860    0.45938   1.00
C5       0.81519    0.28700    0.48144   1.00
H2       0.82990    0.26481    0.49984   1.00
H2       0.83737    0.29981    0.46161   1.00
H2       0.80411    0.31062    0.50060   1.00
C3b      0.71940    0.23348    0.45756   1.00
C5       0.68543    0.21402    0.47767   1.00
H2       0.67015    0.23528    0.49670   1.00
H2       0.66387    0.20223    0.45655   1.00
H2       0.69594    0.18947    0.49594   1.00
C4       0.75032    0.25053    0.47873   1.00
C4       0.74968    0.24947    0.52127   1.00
C3b      0.76695    0.21774    0.54101   1.00
C5       0.78622    0.18461    0.51937   1.00
H2       0.81058    0.19586    0.50129   1.00
H2       0.79822    0.16223    0.53949   1.00
H2       0.76477    0.17010    0.49995   1.00
C3b      0.73180    0.28019    0.54204   1.00
C5       0.71317    0.31437    0.52152   1.00
H2       0.68937    0.30405    0.50217   1.00
H2       0.70055    0.33573    0.54235   1.00
H2       0.73517    0.32982    0.50350   1.00
C3a      0.76615    0.21706    0.58155   1.00
H1       0.77934    0.19281    0.59700   1.00
C3a      0.73138    0.27883    0.58257   1.00
H1       0.71771    0.30229    0.59881   1.00
C2       0.74846    0.24744    0.60243   1.00
C2       0.75256    0.39757    0.25154   1.00
C3a      0.76942    0.41884    0.28212   1.00
H1       0.78324    0.40369    0.30622   1.00
C3a      0.73468    0.41704    0.22035   1.00
H1       0.72166    0.40051    0.19673   1.00
C3b      0.76860    0.45938    0.28185   1.00
C5       0.78700    0.48144    0.31519   1.00
H2       0.76481    0.49984    0.32990   1.00
H2       0.79981    0.46161    0.33737   1.00
H2       0.81062    0.50060    0.30411   1.00
C3b      0.73348    0.45756    0.21940   1.00
C5       0.71402    0.47767    0.18543   1.00
H2       0.73528    0.49670    0.17015   1.00
H2       0.70223    0.45655    0.16387   1.00
H2       0.68947    0.49594    0.19594   1.00
C4       0.75053    0.47873    0.25032   1.00
C4       0.74947    0.52127    0.24968   1.00
C3b      0.71774    0.54101    0.26695   1.00
C5       0.68461    0.51937    0.28622   1.00
H2       0.69586    0.50129    0.31058   1.00
H2       0.66223    0.53949    0.29822   1.00
H2       0.67010    0.49995    0.26477   1.00
C3b      0.78019    0.54204    0.23180   1.00
C5       0.81437    0.52152    0.21317   1.00
H2       0.80405    0.50217    0.18937   1.00
H2       0.83573    0.54235    0.20055   1.00
H2       0.82982    0.50350    0.23517   1.00
C3a      0.71706    0.58155    0.26615   1.00
H1       0.69281    0.59700    0.27934   1.00
C3a      0.77883    0.58257    0.23138   1.00
H1       0.80229    0.59881    0.21771   1.00
C2       0.74744    0.60243    0.24846   1.00
C2       0.60243    0.25154    0.24744   1.00
C3a      0.58116    0.28212    0.23058   1.00
H1       0.59631    0.30622    0.21676   1.00
C3a      0.58296    0.22035    0.26532   1.00
H1       0.59949    0.19673    0.27834   1.00
C3b      0.54062    0.28185    0.23140   1.00
C5       0.51856    0.31519    0.21300   1.00
H2       0.50016    0.32990    0.23519   1.00
H2       0.53839    0.33737    0.20019   1.00
H2       0.49940    0.30411    0.18938   1.00
C3b      0.54244    0.21940    0.26652   1.00
C5       0.52233    0.18543    0.28598   1.00
H2       0.50330    0.17015    0.26472   1.00
H2       0.54345    0.16387    0.29777   1.00
H2       0.50406    0.19594    0.31053   1.00
C4       0.52127    0.25032    0.24947   1.00
C4       0.47873    0.24968    0.25053   1.00
C3b      0.45899    0.26695    0.28226   1.00
C5       0.48063    0.28622    0.31539   1.00
H2       0.49871    0.31058    0.30414   1.00
H2       0.46051    0.29822    0.33777   1.00
H2       0.50005    0.26477    0.32990   1.00
C3b      0.45796    0.23180    0.21981   1.00
C5       0.47848    0.21317    0.18563   1.00
H2       0.49783    0.18937    0.19595   1.00
H2       0.45765    0.20055    0.16427   1.00
H2       0.49650    0.23517    0.17018   1.00
C3a      0.41845    0.26615    0.28294   1.00
H1       0.40300    0.27934    0.30719   1.00
C3a      0.41743    0.23138    0.22117   1.00
H1       0.40119    0.21771    0.19771   1.00
C2       0.39757    0.24846    0.25256   1.00
C2       0.89757    0.25154    0.25256   1.00
C3a      0.91884    0.28212    0.26942   1.00
H1       0.90369    0.30622    0.28324   1.00
C3a      0.91704    0.22035    0.23468   1.00
H1       0.90051    0.19673    0.22166   1.00
C3b      0.95938    0.28185    0.26860   1.00
C5       0.98144    0.31519    0.28700   1.00
H2       0.99984    0.32990    0.26481   1.00
H2       0.96161    0.33737    0.29981   1.00
H2       1.00060    0.30411    0.31062   1.00
C3b      0.95756    0.21940    0.23348   1.00
C5       0.97767    0.18543    0.21402   1.00
H2       0.99670    0.17015    0.23528   1.00
H2       0.95655    0.16387    0.20223   1.00
H2       0.99594    0.19594    0.18947   1.00
C4       0.97873    0.25032    0.25053   1.00
C4       1.02127    0.24968    0.24947   1.00
C3b      1.04101    0.26695    0.21774   1.00
C5       1.01937    0.28622    0.18461   1.00
H2       1.00129    0.31058    0.19586   1.00
H2       1.03949    0.29822    0.16223   1.00
H2       0.99995    0.26477    0.17010   1.00
C3b      1.04204    0.23180    0.28019   1.00
C5       1.02152    0.21317    0.31437   1.00
H2       1.00217    0.18937    0.30405   1.00
H2       1.04235    0.20055    0.33573   1.00
H2       1.00350    0.23517    0.32982   1.00
C3a      1.08155    0.26615    0.21706   1.00
H1       1.09700    0.27934    0.19281   1.00
C3a      1.08257    0.23138    0.27883   1.00
H1       1.09881    0.21771    0.30229   1.00
C2       1.10243    0.24846    0.24744   1.00
C2       0.74744    0.10243    0.25154   1.00
C3a      0.73058    0.08116    0.28212   1.00
H1       0.71676    0.09631    0.30622   1.00
C3a      0.76532    0.08296    0.22035   1.00
H1       0.77834    0.09949    0.19673   1.00
C3b      0.73140    0.04062    0.28185   1.00
C5       0.71300    0.01856    0.31519   1.00
H2       0.73519    0.00016    0.32990   1.00
H2       0.70019    0.03839    0.33737   1.00
H2       0.68938    -0.00060   0.30411   1.00
C3b      0.76652    0.04244    0.21940   1.00
C5       0.78598    0.02233    0.18543   1.00
H2       0.76472    0.00330    0.17015   1.00
H2       0.79777    0.04345    0.16387   1.00
H2       0.81053    0.00406    0.19594   1.00
C4       0.74947    0.02127    0.25032   1.00
C4       0.75053    -0.02127   0.24968   1.00
C3b      0.78226    -0.04101   0.26695   1.00
C5       0.81539    -0.01937   0.28622   1.00
H2       0.80414    -0.00129   0.31058   1.00
H2       0.83777    -0.03949   0.29822   1.00
H2       0.82990    0.00005    0.26477   1.00
C3b      0.71981    -0.04204   0.23180   1.00
C5       0.68563    -0.02152   0.21317   1.00
H2       0.69595    -0.00217   0.18937   1.00
H2       0.66427    -0.04235   0.20055   1.00
H2       0.67018    -0.00350   0.23517   1.00
C3a      0.78294    -0.08155   0.26615   1.00
H1       0.80719    -0.09700   0.27934   1.00
C3a      0.72117    -0.08257   0.23138   1.00
H1       0.69771    -0.09881   0.21771   1.00
C2       0.75256    -0.10243   0.24846   1.00
C2       0.75154    0.24744    0.10243   1.00
C3a      0.78212    0.23058    0.08116   1.00
H1       0.80622    0.21676    0.09631   1.00
C3a      0.72035    0.26532    0.08296   1.00
H1       0.69673    0.27834    0.09949   1.00
C3b      0.78185    0.23140    0.04062   1.00
C5       0.81519    0.21300    0.01856   1.00
H2       0.82990    0.23519    0.00016   1.00
H2       0.83737    0.20019    0.03839   1.00
H2       0.80411    0.18938    -0.00060   1.00
C3b      0.71940    0.26652    0.04244   1.00
C5       0.68543    0.28598    0.02233   1.00
H2       0.67015    0.26472    0.00330   1.00
H2       0.66387    0.29777    0.04345   1.00
H2       0.69594    0.31053    0.00406   1.00
C4       0.75032    0.24947    0.02127   1.00
C4       0.74968    0.25053    -0.02127   1.00
C3b      0.76695    0.28226    -0.04101   1.00
C5       0.78622    0.31539    -0.01937   1.00
H2       0.81058    0.30414    -0.00129   1.00
H2       0.79822    0.33777    -0.03949   1.00
H2       0.76477    0.32990    0.00005   1.00
C3b      0.73180    0.21981    -0.04204   1.00
C5       0.71317    0.18563    -0.02152   1.00
H2       0.68937    0.19595    -0.00217   1.00
H2       0.70055    0.16427    -0.04235   1.00
H2       0.73517    0.17018    -0.00350   1.00
C3a      0.76615    0.28294    -0.08155   1.00
H1       0.77934    0.30719    -0.09700   1.00
C3a      0.73138    0.22117    -0.08257   1.00
H1       0.71771    0.19771    -0.09881   1.00
C2       0.74846    0.25256    -0.10243   1.00
C2       0.91654    0.91756    1.06257   1.00
C3a      0.94712    0.93442    1.08384   1.00
H1       0.97122    0.94824    1.06869   1.00
C3a      0.88535    0.89968    1.08204   1.00
H1       0.86173    0.88666    1.06551   1.00
C3b      0.94685    0.93360    1.12438   1.00
C5       0.98019    0.95200    1.14644   1.00
H2       0.99490    0.92981    1.16484   1.00
H2       1.00237    0.96481    1.12661   1.00
H2       0.96911    0.97562    1.16560   1.00
C3b      0.88440    0.89848    1.12256   1.00
C5       0.85043    0.87902    1.14267   1.00
H2       0.83515    0.90028    1.16170   1.00
H2       0.82887    0.86723    1.12155   1.00
H2       0.86094    0.85447    1.16094   1.00
C4       0.91532    0.91553    1.14373   1.00
C4       0.91468    0.91447    1.18627   1.00
C3b      0.93195    0.88274    1.20601   1.00
C5       0.95122    0.84961    1.18437   1.00
H2       0.97558    0.86086    1.16629   1.00
H2       0.96322    0.82723    1.20449   1.00
H2       0.92977    0.83510    1.16495   1.00
C3b      0.89680    0.94519    1.20704   1.00
C5       0.87817    0.97937    1.18652   1.00
H2       0.85437    0.96905    1.16717   1.00
H2       0.86555    1.00073    1.20735   1.00
H2       0.90017    0.99482    1.16850   1.00
C3a      0.93115    0.88206    1.24655   1.00
H1       0.94434    0.85781    1.26200   1.00
C3a      0.89638    0.94383    1.24757   1.00
H1       0.88271    0.96729    1.26381   1.00
C2       0.91346    0.91244    1.26743   1.00
C2       0.91756    1.06257    0.91654   1.00
C3a      0.93442    1.08384    0.94712   1.00
H1       0.94824    1.06869    0.97122   1.00
C3a      0.89968    1.08204    0.88535   1.00
H1       0.88666    1.06551    0.86173   1.00
C3b      0.93360    1.12438    0.94685   1.00
C5       0.95200    1.14644    0.98019   1.00
H2       0.92981    1.16484    0.99490   1.00
H2       0.96481    1.12661    1.00237   1.00
H2       0.97562    1.16560    0.96911   1.00
C3b      0.89848    1.12256    0.88440   1.00
C5       0.87902    1.14267    0.85043   1.00
H2       0.90028    1.16170    0.83515   1.00
H2       0.86723    1.12155    0.82887   1.00
H2       0.85447    1.16094    0.86094   1.00
C4       0.91553    1.14373    0.91532   1.00
C4       0.91447    1.18627    0.91468   1.00
C3b      0.88274    1.20601    0.93195   1.00
C5       0.84961    1.18437    0.95122   1.00
H2       0.86086    1.16629    0.97558   1.00
H2       0.82723    1.20449    0.96322   1.00
H2       0.83510    1.16495    0.92977   1.00
C3b      0.94519    1.20704    0.89680   1.00
C5       0.97937    1.18652    0.87817   1.00
H2       0.96905    1.16717    0.85437   1.00
H2       1.00073    1.20735    0.86555   1.00
H2       0.99482    1.16850    0.90017   1.00
C3a      0.88206    1.24655    0.93115   1.00
H1       0.85781    1.26200    0.94434   1.00
C3a      0.94383    1.24757    0.89638   1.00
H1       0.96729    1.26381    0.88271   1.00
C2       0.91244    1.26743    0.91346   1.00
C2       0.76743    0.91654    0.91244   1.00
C3a      0.74616    0.94712    0.89558   1.00
H1       0.76131    0.97122    0.88176   1.00
C3a      0.74796    0.88535    0.93032   1.00
H1       0.76449    0.86173    0.94334   1.00
C3b      0.70562    0.94685    0.89640   1.00
C5       0.68356    0.98019    0.87800   1.00
H2       0.66516    0.99490    0.90019   1.00
H2       0.70339    1.00237    0.86519   1.00
H2       0.66440    0.96911    0.85438   1.00
C3b      0.70744    0.88440    0.93152   1.00
C5       0.68733    0.85043    0.95098   1.00
H2       0.66830    0.83515    0.92972   1.00
H2       0.70845    0.82887    0.96277   1.00
H2       0.66906    0.86094    0.97553   1.00
C4       0.68627    0.91532    0.91447   1.00
C4       0.64373    0.91468    0.91553   1.00
C3b      0.62399    0.93195    0.94726   1.00
C5       0.64563    0.95122    0.98039   1.00
H2       0.66371    0.97558    0.96914   1.00
H2       0.62551    0.96322    1.00277   1.00
H2       0.66505    0.92977    0.99490   1.00
C3b      0.62296    0.89680    0.88481   1.00
C5       0.64348    0.87817    0.85063   1.00
H2       0.66283    0.85437    0.86095   1.00
H2       0.62265    0.86555    0.82927   1.00
H2       0.66150    0.90017    0.83518   1.00
C3a      0.58345    0.93115    0.94794   1.00
H1       0.56800    0.94434    0.97219   1.00
C3a      0.58243    0.89638    0.88617   1.00
H1       0.56619    0.88271    0.86271   1.00
C2       0.56257    0.91346    0.91756   1.00
C2       1.06257    0.91654    0.91756   1.00
C3a      1.08384    0.94712    0.93442   1.00
H1       1.06869    0.97122    0.94824   1.00
C3a      1.08204    0.88535    0.89968   1.00
H1       1.06551    0.86173    0.88666   1.00
C3b      1.12438    0.94685    0.93360   1.00
C5       1.14644    0.98019    0.95200   1.00
H2       1.16484    0.99490    0.92981   1.00
H2       1.12661    1.00237    0.96481   1.00
H2       1.16560    0.96911    0.97562   1.00
C3b      1.12256    0.88440    0.89848   1.00
C5       1.14267    0.85043    0.87902   1.00
H2       1.16170    0.83515    0.90028   1.00
H2       1.12155    0.82887    0.86723   1.00
H2       1.16094    0.86094    0.85447   1.00
C4       1.14373    0.91532    0.91553   1.00
C4       1.18627    0.91468    0.91447   1.00
C3b      1.20601    0.93195    0.88274   1.00
C5       1.18437    0.95122    0.84961   1.00
H2       1.16629    0.97558    0.86086   1.00
H2       1.20449    0.96322    0.82723   1.00
H2       1.16495    0.92977    0.83510   1.00
C3b      1.20704    0.89680    0.94519   1.00
C5       1.18652    0.87817    0.97937   1.00
H2       1.16717    0.85437    0.96905   1.00
H2       1.20735    0.86555    1.00073   1.00
H2       1.16850    0.90017    0.99482   1.00
C3a      1.24655    0.93115    0.88206   1.00
H1       1.26200    0.94434    0.85781   1.00
C3a      1.24757    0.89638    0.94383   1.00
H1       1.26381    0.88271    0.96729   1.00
C2       1.26743    0.91346    0.91244   1.00
C2       0.91244    0.76743    0.91654   1.00
C3a      0.89558    0.74616    0.94712   1.00
H1       0.88176    0.76131    0.97122   1.00
C3a      0.93032    0.74796    0.88535   1.00
H1       0.94334    0.76449    0.86173   1.00
C3b      0.89640    0.70562    0.94685   1.00
C5       0.87800    0.68356    0.98019   1.00
H2       0.90019    0.66516    0.99490   1.00
H2       0.86519    0.70339    1.00237   1.00
H2       0.85438    0.66440    0.96911   1.00
C3b      0.93152    0.70744    0.88440   1.00
C5       0.95098    0.68733    0.85043   1.00
H2       0.92972    0.66830    0.83515   1.00
H2       0.96277    0.70845    0.82887   1.00
H2       0.97553    0.66906    0.86094   1.00
C4       0.91447    0.68627    0.91532   1.00
C4       0.91553    0.64373    0.91468   1.00
C3b      0.94726    0.62399    0.93195   1.00
C5       0.98039    0.64563    0.95122   1.00
H2       0.96914    0.66371    0.97558   1.00
H2       1.00277    0.62551    0.96322   1.00
H2       0.99490    0.66505    0.92977   1.00
C3b      0.88481    0.62296    0.89680   1.00
C5       0.85063    0.64348    0.87817   1.00
H2       0.86095    0.66283    0.85437   1.00
H2       0.82927    0.62265    0.86555   1.00
H2       0.83518    0.66150    0.90017   1.00
C3a      0.94794    0.58345    0.93115   1.00
H1       0.97219    0.56800    0.94434   1.00
C3a      0.88617    0.58243    0.89638   1.00
H1       0.86271    0.56619    0.88271   1.00
C2       0.91756    0.56257    0.91346   1.00
C2       0.91654    0.91244    0.76743   1.00
C3a      0.94712    0.89558    0.74616   1.00
H1       0.97122    0.88176    0.76131   1.00
C3a      0.88535    0.93032    0.74796   1.00
H1       0.86173    0.94334    0.76449   1.00
C3b      0.94685    0.89640    0.70562   1.00
C5       0.98019    0.87800    0.68356   1.00
H2       0.99490    0.90019    0.66516   1.00
H2       1.00237    0.86519    0.70339   1.00
H2       0.96911    0.85438    0.66440   1.00
C3b      0.88440    0.93152    0.70744   1.00
C5       0.85043    0.95098    0.68733   1.00
H2       0.83515    0.92972    0.66830   1.00
H2       0.82887    0.96277    0.70845   1.00
H2       0.86094    0.97553    0.66906   1.00
C4       0.91532    0.91447    0.68627   1.00
C4       0.91468    0.91553    0.64373   1.00
C3b      0.93195    0.94726    0.62399   1.00
C5       0.95122    0.98039    0.64563   1.00
H2       0.97558    0.96914    0.66371   1.00
H2       0.96322    1.00277    0.62551   1.00
H2       0.92977    0.99490    0.66505   1.00
C3b      0.89680    0.88481    0.62296   1.00
C5       0.87817    0.85063    0.64348   1.00
H2       0.85437    0.86095    0.66283   1.00
H2       0.86555    0.82927    0.62265   1.00
H2       0.90017    0.83518    0.66150   1.00
C3a      0.93115    0.94794    0.58345   1.00
H1       0.94434    0.97219    0.56800   1.00
C3a      0.89638    0.88617    0.58243   1.00
H1       0.88271    0.86271    0.56619   1.00
C2       0.91346    0.91756    0.56257   1.00
C2       0.41654    0.41756    1.06257   1.00
C3a      0.44712    0.43442    1.08384   1.00
H1       0.47122    0.44824    1.06869   1.00
C3a      0.38535    0.39968    1.08204   1.00
H1       0.36173    0.38666    1.06551   1.00
C3b      0.44685    0.43360    1.12438   1.00
C5       0.48019    0.45200    1.14644   1.00
H2       0.49490    0.42981    1.16484   1.00
H2       0.50237    0.46481    1.12661   1.00
H2       0.46911    0.47562    1.16560   1.00
C3b      0.38440    0.39848    1.12256   1.00
C5       0.35043    0.37902    1.14267   1.00
H2       0.33515    0.40028    1.16170   1.00
H2       0.32887    0.36723    1.12155   1.00
H2       0.36094    0.35447    1.16094   1.00
C4       0.41532    0.41553    1.14373   1.00
C4       0.41468    0.41447    1.18627   1.00
C3b      0.43195    0.38274    1.20601   1.00
C5       0.45122    0.34961    1.18437   1.00
H2       0.47558    0.36086    1.16629   1.00
H2       0.46322    0.32723    1.20449   1.00
H2       0.42977    0.33510    1.16495   1.00
C3b      0.39680    0.44519    1.20704   1.00
C5       0.37817    0.47937    1.18652   1.00
H2       0.35437    0.46905    1.16717   1.00
H2       0.36555    0.50073    1.20735   1.00
H2       0.40017    0.49482    1.16850   1.00
C3a      0.43115    0.38206    1.24655   1.00
H1       0.44434    0.35781    1.26200   1.00
C3a      0.39638    0.44383    1.24757   1.00
H1       0.38271    0.46729    1.26381   1.00
C2       0.41346    0.41244    1.26743   1.00
C2       0.41756    0.56257    0.91654   1.00
C3a      0.43442    0.58384    0.94712   1.00
H1       0.44824    0.56869    0.97122   1.00
C3a      0.39968    0.58204    0.88535   1.00
H1       0.38666    0.56551    0.86173   1.00
C3b      0.43360    0.62438    0.94685   1.00
C5       0.45200    0.64644    0.98019   1.00
H2       0.42981    0.66484    0.99490   1.00
H2       0.46481    0.62661    1.00237   1.00
H2       0.47562    0.66560    0.96911   1.00
C3b      0.39848    0.62256    0.88440   1.00
C5       0.37902    0.64267    0.85043   1.00
H2       0.40028    0.66170    0.83515   1.00
H2       0.36723    0.62155    0.82887   1.00
H2       0.35447    0.66094    0.86094   1.00
C4       0.41553    0.64373    0.91532   1.00
C4       0.41447    0.68627    0.91468   1.00
C3b      0.38274    0.70601    0.93195   1.00
C5       0.34961    0.68437    0.95122   1.00
H2       0.36086    0.66629    0.97558   1.00
H2       0.32723    0.70449    0.96322   1.00
H2       0.33510    0.66495    0.92977   1.00
C3b      0.44519    0.70704    0.89680   1.00
C5       0.47937    0.68652    0.87817   1.00
H2       0.46905    0.66717    0.85437   1.00
H2       0.50073    0.70735    0.86555   1.00
H2       0.49482    0.66850    0.90017   1.00
C3a      0.38206    0.74655    0.93115   1.00
H1       0.35781    0.76200    0.94434   1.00
C3a      0.44383    0.74757    0.89638   1.00
H1       0.46729    0.76381    0.88271   1.00
C2       0.41244    0.76743    0.91346   1.00
C2       0.26743    0.41654    0.91244   1.00
C3a      0.24616    0.44712    0.89558   1.00
H1       0.26131    0.47122    0.88176   1.00
C3a      0.24796    0.38535    0.93032   1.00
H1       0.26449    0.36173    0.94334   1.00
C3b      0.20562    0.44685    0.89640   1.00
C5       0.18356    0.48019    0.87800   1.00
H2       0.16516    0.49490    0.90019   1.00
H2       0.20339    0.50237    0.86519   1.00
H2       0.16440    0.46911    0.85438   1.00
C3b      0.20744    0.38440    0.93152   1.00
C5       0.18733    0.35043    0.95098   1.00
H2       0.16830    0.33515    0.92972   1.00
H2       0.20845    0.32887    0.96277   1.00
H2       0.16906    0.36094    0.97553   1.00
C4       0.18627    0.41532    0.91447   1.00
C4       0.14373    0.41468    0.91553   1.00
C3b      0.12399    0.43195    0.94726   1.00
C5       0.14563    0.45122    0.98039   1.00
H2       0.16371    0.47558    0.96914   1.00
H2       0.12551    0.46322    1.00277   1.00
H2       0.16505    0.42977    0.99490   1.00
C3b      0.12296    0.39680    0.88481   1.00
C5       0.14348    0.37817    0.85063   1.00
H2       0.16283    0.35437    0.86095   1.00
H2       0.12265    0.36555    0.82927   1.00
H2       0.16150    0.40017    0.83518   1.00
C3a      0.08345    0.43115    0.94794   1.00
H1       0.06800    0.44434    0.97219   1.00
C3a      0.08243    0.39638    0.88617   1.00
H1       0.06619    0.38271    0.86271   1.00
C2       0.06257    0.41346    0.91756   1.00
C2       0.56257    0.41654    0.91756   1.00
C3a      0.58384    0.44712    0.93442   1.00
H1       0.56869    0.47122    0.94824   1.00
C3a      0.58204    0.38535    0.89968   1.00
H1       0.56551    0.36173    0.88666   1.00
C3b      0.62438    0.44685    0.93360   1.00
C5       0.64644    0.48019    0.95200   1.00
H2       0.66484    0.49490    0.92981   1.00
H2       0.62661    0.50237    0.96481   1.00
H2       0.66560    0.46911    0.97562   1.00
C3b      0.62256    0.38440    0.89848   1.00
C5       0.64267    0.35043    0.87902   1.00
H2       0.66170    0.33515    0.90028   1.00
H2       0.62155    0.32887    0.86723   1.00
H2       0.66094    0.36094    0.85447   1.00
C4       0.64373    0.41532    0.91553   1.00
C4       0.68627    0.41468    0.91447   1.00
C3b      0.70601    0.43195    0.88274   1.00
C5       0.68437    0.45122    0.84961   1.00
H2       0.66629    0.47558    0.86086   1.00
H2       0.70449    0.46322    0.82723   1.00
H2       0.66495    0.42977    0.83510   1.00
C3b      0.70704    0.39680    0.94519   1.00
C5       0.68652    0.37817    0.97937   1.00
H2       0.66717    0.35437    0.96905   1.00
H2       0.70735    0.36555    1.00073   1.00
H2       0.66850    0.40017    0.99482   1.00
C3a      0.74655    0.43115    0.88206   1.00
H1       0.76200    0.44434    0.85781   1.00
C3a      0.74757    0.39638    0.94383   1.00
H1       0.76381    0.38271    0.96729   1.00
C2       0.76743    0.41346    0.91244   1.00
C2       0.41244    0.26743    0.91654   1.00
C3a      0.39558    0.24616    0.94712   1.00
H1       0.38176    0.26131    0.97122   1.00
C3a      0.43032    0.24796    0.88535   1.00
H1       0.44334    0.26449    0.86173   1.00
C3b      0.39640    0.20562    0.94685   1.00
C5       0.37800    0.18356    0.98019   1.00
H2       0.40019    0.16516    0.99490   1.00
H2       0.36519    0.20339    1.00237   1.00
H2       0.35438    0.16440    0.96911   1.00
C3b      0.43152    0.20744    0.88440   1.00
C5       0.45098    0.18733    0.85043   1.00
H2       0.42972    0.16830    0.83515   1.00
H2       0.46277    0.20845    0.82887   1.00
H2       0.47553    0.16906    0.86094   1.00
C4       0.41447    0.18627    0.91532   1.00
C4       0.41553    0.14373    0.91468   1.00
C3b      0.44726    0.12399    0.93195   1.00
C5       0.48039    0.14563    0.95122   1.00
H2       0.46914    0.16371    0.97558   1.00
H2       0.50277    0.12551    0.96322   1.00
H2       0.49490    0.16505    0.92977   1.00
C3b      0.38481    0.12296    0.89680   1.00
C5       0.35063    0.14348    0.87817   1.00
H2       0.36095    0.16283    0.85437   1.00
H2       0.32927    0.12265    0.86555   1.00
H2       0.33518    0.16150    0.90017   1.00
C3a      0.44794    0.08345    0.93115   1.00
H1       0.47219    0.06800    0.94434   1.00
C3a      0.38617    0.08243    0.89638   1.00
H1       0.36271    0.06619    0.88271   1.00
C2       0.41756    0.06257    0.91346   1.00
C2       0.41654    0.41244    0.76743   1.00
C3a      0.44712    0.39558    0.74616   1.00
H1       0.47122    0.38176    0.76131   1.00
C3a      0.38535    0.43032    0.74796   1.00
H1       0.36173    0.44334    0.76449   1.00
C3b      0.44685    0.39640    0.70562   1.00
C5       0.48019    0.37800    0.68356   1.00
H2       0.49490    0.40019    0.66516   1.00
H2       0.50237    0.36519    0.70339   1.00
H2       0.46911    0.35438    0.66440   1.00
C3b      0.38440    0.43152    0.70744   1.00
C5       0.35043    0.45098    0.68733   1.00
H2       0.33515    0.42972    0.66830   1.00
H2       0.32887    0.46277    0.70845   1.00
H2       0.36094    0.47553    0.66906   1.00
C4       0.41532    0.41447    0.68627   1.00
C4       0.41468    0.41553    0.64373   1.00
C3b      0.43195    0.44726    0.62399   1.00
C5       0.45122    0.48039    0.64563   1.00
H2       0.47558    0.46914    0.66371   1.00
H2       0.46322    0.50277    0.62551   1.00
H2       0.42977    0.49490    0.66505   1.00
C3b      0.39680    0.38481    0.62296   1.00
C5       0.37817    0.35063    0.64348   1.00
H2       0.35437    0.36095    0.66283   1.00
H2       0.36555    0.32927    0.62265   1.00
H2       0.40017    0.33518    0.66150   1.00
C3a      0.43115    0.44794    0.58345   1.00
H1       0.44434    0.47219    0.56800   1.00
C3a      0.39638    0.38617    0.58243   1.00
H1       0.38271    0.36271    0.56619   1.00
C2       0.41346    0.41756    0.56257   1.00
C2       0.41654    0.91756    0.56257   1.00
C3a      0.44712    0.93442    0.58384   1.00
H1       0.47122    0.94824    0.56869   1.00
C3a      0.38535    0.89968    0.58204   1.00
H1       0.36173    0.88666    0.56551   1.00
C3b      0.44685    0.93360    0.62438   1.00
C5       0.48019    0.95200    0.64644   1.00
H2       0.49490    0.92981    0.66484   1.00
H2       0.50237    0.96481    0.62661   1.00
H2       0.46911    0.97562    0.66560   1.00
C3b      0.38440    0.89848    0.62256   1.00
C5       0.35043    0.87902    0.64267   1.00
H2       0.33515    0.90028    0.66170   1.00
H2       0.32887    0.86723    0.62155   1.00
H2       0.36094    0.85447    0.66094   1.00
C4       0.41532    0.91553    0.64373   1.00
C4       0.41468    0.91447    0.68627   1.00
C3b      0.43195    0.88274    0.70601   1.00
C5       0.45122    0.84961    0.68437   1.00
H2       0.47558    0.86086    0.66629   1.00
H2       0.46322    0.82723    0.70449   1.00
H2       0.42977    0.83510    0.66495   1.00
C3b      0.39680    0.94519    0.70704   1.00
C5       0.37817    0.97937    0.68652   1.00
H2       0.35437    0.96905    0.66717   1.00
H2       0.36555    1.00073    0.70735   1.00
H2       0.40017    0.99482    0.66850   1.00
C3a      0.43115    0.88206    0.74655   1.00
H1       0.44434    0.85781    0.76200   1.00
C3a      0.39638    0.94383    0.74757   1.00
H1       0.38271    0.96729    0.76381   1.00
C2       0.41346    0.91244    0.76743   1.00
C2       0.41756    1.06257    0.41654   1.00
C3a      0.43442    1.08384    0.44712   1.00
H1       0.44824    1.06869    0.47122   1.00
C3a      0.39968    1.08204    0.38535   1.00
H1       0.38666    1.06551    0.36173   1.00
C3b      0.43360    1.12438    0.44685   1.00
C5       0.45200    1.14644    0.48019   1.00
H2       0.42981    1.16484    0.49490   1.00
H2       0.46481    1.12661    0.50237   1.00
H2       0.47562    1.16560    0.46911   1.00
C3b      0.39848    1.12256    0.38440   1.00
C5       0.37902    1.14267    0.35043   1.00
H2       0.40028    1.16170    0.33515   1.00
H2       0.36723    1.12155    0.32887   1.00
H2       0.35447    1.16094    0.36094   1.00
C4       0.41553    1.14373    0.41532   1.00
C4       0.41447    1.18627    0.41468   1.00
C3b      0.38274    1.20601    0.43195   1.00
C5       0.34961    1.18437    0.45122   1.00
H2       0.36086    1.16629    0.47558   1.00
H2       0.32723    1.20449    0.46322   1.00
H2       0.33510    1.16495    0.42977   1.00
C3b      0.44519    1.20704    0.39680   1.00
C5       0.47937    1.18652    0.37817   1.00
H2       0.46905    1.16717    0.35437   1.00
H2       0.50073    1.20735    0.36555   1.00
H2       0.49482    1.16850    0.40017   1.00
C3a      0.38206    1.24655    0.43115   1.00
H1       0.35781    1.26200    0.44434   1.00
C3a      0.44383    1.24757    0.39638   1.00
H1       0.46729    1.26381    0.38271   1.00
C2       0.41244    1.26743    0.41346   1.00
C2       0.26743    0.91654    0.41244   1.00
C3a      0.24616    0.94712    0.39558   1.00
H1       0.26131    0.97122    0.38176   1.00
C3a      0.24796    0.88535    0.43032   1.00
H1       0.26449    0.86173    0.44334   1.00
C3b      0.20562    0.94685    0.39640   1.00
C5       0.18356    0.98019    0.37800   1.00
H2       0.16516    0.99490    0.40019   1.00
H2       0.20339    1.00237    0.36519   1.00
H2       0.16440    0.96911    0.35438   1.00
C3b      0.20744    0.88440    0.43152   1.00
C5       0.18733    0.85043    0.45098   1.00
H2       0.16830    0.83515    0.42972   1.00
H2       0.20845    0.82887    0.46277   1.00
H2       0.16906    0.86094    0.47553   1.00
C4       0.18627    0.91532    0.41447   1.00
C4       0.14373    0.91468    0.41553   1.00
C3b      0.12399    0.93195    0.44726   1.00
C5       0.14563    0.95122    0.48039   1.00
H2       0.16371    0.97558    0.46914   1.00
H2       0.12551    0.96322    0.50277   1.00
H2       0.16505    0.92977    0.49490   1.00
C3b      0.12296    0.89680    0.38481   1.00
C5       0.14348    0.87817    0.35063   1.00
H2       0.16283    0.85437    0.36095   1.00
H2       0.12265    0.86555    0.32927   1.00
H2       0.16150    0.90017    0.33518   1.00
C3a      0.08345    0.93115    0.44794   1.00
H1       0.06800    0.94434    0.47219   1.00
C3a      0.08243    0.89638    0.38617   1.00
H1       0.06619    0.88271    0.36271   1.00
C2       0.06257    0.91346    0.41756   1.00
C2       0.56257    0.91654    0.41756   1.00
C3a      0.58384    0.94712    0.43442   1.00
H1       0.56869    0.97122    0.44824   1.00
C3a      0.58204    0.88535    0.39968   1.00
H1       0.56551    0.86173    0.38666   1.00
C3b      0.62438    0.94685    0.43360   1.00
C5       0.64644    0.98019    0.45200   1.00
H2       0.66484    0.99490    0.42981   1.00
H2       0.62661    1.00237    0.46481   1.00
H2       0.66560    0.96911    0.47562   1.00
C3b      0.62256    0.88440    0.39848   1.00
C5       0.64267    0.85043    0.37902   1.00
H2       0.66170    0.83515    0.40028   1.00
H2       0.62155    0.82887    0.36723   1.00
H2       0.66094    0.86094    0.35447   1.00
C4       0.64373    0.91532    0.41553   1.00
C4       0.68627    0.91468    0.41447   1.00
C3b      0.70601    0.93195    0.38274   1.00
C5       0.68437    0.95122    0.34961   1.00
H2       0.66629    0.97558    0.36086   1.00
H2       0.70449    0.96322    0.32723   1.00
H2       0.66495    0.92977    0.33510   1.00
C3b      0.70704    0.89680    0.44519   1.00
C5       0.68652    0.87817    0.47937   1.00
H2       0.66717    0.85437    0.46905   1.00
H2       0.70735    0.86555    0.50073   1.00
H2       0.66850    0.90017    0.49482   1.00
C3a      0.74655    0.93115    0.38206   1.00
H1       0.76200    0.94434    0.35781   1.00
C3a      0.74757    0.89638    0.44383   1.00
H1       0.76381    0.88271    0.46729   1.00
C2       0.76743    0.91346    0.41244   1.00
C2       0.41244    0.76743    0.41654   1.00
C3a      0.39558    0.74616    0.44712   1.00
H1       0.38176    0.76131    0.47122   1.00
C3a      0.43032    0.74796    0.38535   1.00
H1       0.44334    0.76449    0.36173   1.00
C3b      0.39640    0.70562    0.44685   1.00
C5       0.37800    0.68356    0.48019   1.00
H2       0.40019    0.66516    0.49490   1.00
H2       0.36519    0.70339    0.50237   1.00
H2       0.35438    0.66440    0.46911   1.00
C3b      0.43152    0.70744    0.38440   1.00
C5       0.45098    0.68733    0.35043   1.00
H2       0.42972    0.66830    0.33515   1.00
H2       0.46277    0.70845    0.32887   1.00
H2       0.47553    0.66906    0.36094   1.00
C4       0.41447    0.68627    0.41532   1.00
C4       0.41553    0.64373    0.41468   1.00
C3b      0.44726    0.62399    0.43195   1.00
C5       0.48039    0.64563    0.45122   1.00
H2       0.46914    0.66371    0.47558   1.00
H2       0.50277    0.62551    0.46322   1.00
H2       0.49490    0.66505    0.42977   1.00
C3b      0.38481    0.62296    0.39680   1.00
C5       0.35063    0.64348    0.37817   1.00
H2       0.36095    0.66283    0.35437   1.00
H2       0.32927    0.62265    0.36555   1.00
H2       0.33518    0.66150    0.40017   1.00
C3a      0.44794    0.58345    0.43115   1.00
H1       0.47219    0.56800    0.44434   1.00
C3a      0.38617    0.58243    0.39638   1.00
H1       0.36271    0.56619    0.38271   1.00
C2       0.41756    0.56257    0.41346   1.00
C2       0.41654    0.91244    0.26743   1.00
C3a      0.44712    0.89558    0.24616   1.00
H1       0.47122    0.88176    0.26131   1.00
C3a      0.38535    0.93032    0.24796   1.00
H1       0.36173    0.94334    0.26449   1.00
C3b      0.44685    0.89640    0.20562   1.00
C5       0.48019    0.87800    0.18356   1.00
H2       0.49490    0.90019    0.16516   1.00
H2       0.50237    0.86519    0.20339   1.00
H2       0.46911    0.85438    0.16440   1.00
C3b      0.38440    0.93152    0.20744   1.00
C5       0.35043    0.95098    0.18733   1.00
H2       0.33515    0.92972    0.16830   1.00
H2       0.32887    0.96277    0.20845   1.00
H2       0.36094    0.97553    0.16906   1.00
C4       0.41532    0.91447    0.18627   1.00
C4       0.41468    0.91553    0.14373   1.00
C3b      0.43195    0.94726    0.12399   1.00
C5       0.45122    0.98039    0.14563   1.00
H2       0.47558    0.96914    0.16371   1.00
H2       0.46322    1.00277    0.12551   1.00
H2       0.42977    0.99490    0.16505   1.00
C3b      0.39680    0.88481    0.12296   1.00
C5       0.37817    0.85063    0.14348   1.00
H2       0.35437    0.86095    0.16283   1.00
H2       0.36555    0.82927    0.12265   1.00
H2       0.40017    0.83518    0.16150   1.00
C3a      0.43115    0.94794    0.08345   1.00
H1       0.44434    0.97219    0.06800   1.00
C3a      0.39638    0.88617    0.08243   1.00
H1       0.38271    0.86271    0.06619   1.00
C2       0.41346    0.91756    0.06257   1.00
C2       0.91654    0.41756    0.56257   1.00
C3a      0.94712    0.43442    0.58384   1.00
H1       0.97122    0.44824    0.56869   1.00
C3a      0.88535    0.39968    0.58204   1.00
H1       0.86173    0.38666    0.56551   1.00
C3b      0.94685    0.43360    0.62438   1.00
C5       0.98019    0.45200    0.64644   1.00
H2       0.99490    0.42981    0.66484   1.00
H2       1.00237    0.46481    0.62661   1.00
H2       0.96911    0.47562    0.66560   1.00
C3b      0.88440    0.39848    0.62256   1.00
C5       0.85043    0.37902    0.64267   1.00
H2       0.83515    0.40028    0.66170   1.00
H2       0.82887    0.36723    0.62155   1.00
H2       0.86094    0.35447    0.66094   1.00
C4       0.91532    0.41553    0.64373   1.00
C4       0.91468    0.41447    0.68627   1.00
C3b      0.93195    0.38274    0.70601   1.00
C5       0.95122    0.34961    0.68437   1.00
H2       0.97558    0.36086    0.66629   1.00
H2       0.96322    0.32723    0.70449   1.00
H2       0.92977    0.33510    0.66495   1.00
C3b      0.89680    0.44519    0.70704   1.00
C5       0.87817    0.47937    0.68652   1.00
H2       0.85437    0.46905    0.66717   1.00
H2       0.86555    0.50073    0.70735   1.00
H2       0.90017    0.49482    0.66850   1.00
C3a      0.93115    0.38206    0.74655   1.00
H1       0.94434    0.35781    0.76200   1.00
C3a      0.89638    0.44383    0.74757   1.00
H1       0.88271    0.46729    0.76381   1.00
C2       0.91346    0.41244    0.76743   1.00
C2       0.91756    0.56257    0.41654   1.00
C3a      0.93442    0.58384    0.44712   1.00
H1       0.94824    0.56869    0.47122   1.00
C3a      0.89968    0.58204    0.38535   1.00
H1       0.88666    0.56551    0.36173   1.00
C3b      0.93360    0.62438    0.44685   1.00
C5       0.95200    0.64644    0.48019   1.00
H2       0.92981    0.66484    0.49490   1.00
H2       0.96481    0.62661    0.50237   1.00
H2       0.97562    0.66560    0.46911   1.00
C3b      0.89848    0.62256    0.38440   1.00
C5       0.87902    0.64267    0.35043   1.00
H2       0.90028    0.66170    0.33515   1.00
H2       0.86723    0.62155    0.32887   1.00
H2       0.85447    0.66094    0.36094   1.00
C4       0.91553    0.64373    0.41532   1.00
C4       0.91447    0.68627    0.41468   1.00
C3b      0.88274    0.70601    0.43195   1.00
C5       0.84961    0.68437    0.45122   1.00
H2       0.86086    0.66629    0.47558   1.00
H2       0.82723    0.70449    0.46322   1.00
H2       0.83510    0.66495    0.42977   1.00
C3b      0.94519    0.70704    0.39680   1.00
C5       0.97937    0.68652    0.37817   1.00
H2       0.96905    0.66717    0.35437   1.00
H2       1.00073    0.70735    0.36555   1.00
H2       0.99482    0.66850    0.40017   1.00
C3a      0.88206    0.74655    0.43115   1.00
H1       0.85781    0.76200    0.44434   1.00
C3a      0.94383    0.74757    0.39638   1.00
H1       0.96729    0.76381    0.38271   1.00
C2       0.91244    0.76743    0.41346   1.00
C2       0.76743    0.41654    0.41244   1.00
C3a      0.74616    0.44712    0.39558   1.00
H1       0.76131    0.47122    0.38176   1.00
C3a      0.74796    0.38535    0.43032   1.00
H1       0.76449    0.36173    0.44334   1.00
C3b      0.70562    0.44685    0.39640   1.00
C5       0.68356    0.48019    0.37800   1.00
H2       0.66516    0.49490    0.40019   1.00
H2       0.70339    0.50237    0.36519   1.00
H2       0.66440    0.46911    0.35438   1.00
C3b      0.70744    0.38440    0.43152   1.00
C5       0.68733    0.35043    0.45098   1.00
H2       0.66830    0.33515    0.42972   1.00
H2       0.70845    0.32887    0.46277   1.00
H2       0.66906    0.36094    0.47553   1.00
C4       0.68627    0.41532    0.41447   1.00
C4       0.64373    0.41468    0.41553   1.00
C3b      0.62399    0.43195    0.44726   1.00
C5       0.64563    0.45122    0.48039   1.00
H2       0.66371    0.47558    0.46914   1.00
H2       0.62551    0.46322    0.50277   1.00
H2       0.66505    0.42977    0.49490   1.00
C3b      0.62296    0.39680    0.38481   1.00
C5       0.64348    0.37817    0.35063   1.00
H2       0.66283    0.35437    0.36095   1.00
H2       0.62265    0.36555    0.32927   1.00
H2       0.66150    0.40017    0.33518   1.00
C3a      0.58345    0.43115    0.44794   1.00
H1       0.56800    0.44434    0.47219   1.00
C3a      0.58243    0.39638    0.38617   1.00
H1       0.56619    0.38271    0.36271   1.00
C2       0.56257    0.41346    0.41756   1.00
C2       1.06257    0.41654    0.41756   1.00
C3a      1.08384    0.44712    0.43442   1.00
H1       1.06869    0.47122    0.44824   1.00
C3a      1.08204    0.38535    0.39968   1.00
H1       1.06551    0.36173    0.38666   1.00
C3b      1.12438    0.44685    0.43360   1.00
C5       1.14644    0.48019    0.45200   1.00
H2       1.16484    0.49490    0.42981   1.00
H2       1.12661    0.50237    0.46481   1.00
H2       1.16560    0.46911    0.47562   1.00
C3b      1.12256    0.38440    0.39848   1.00
C5       1.14267    0.35043    0.37902   1.00
H2       1.16170    0.33515    0.40028   1.00
H2       1.12155    0.32887    0.36723   1.00
H2       1.16094    0.36094    0.35447   1.00
C4       1.14373    0.41532    0.41553   1.00
C4       1.18627    0.41468    0.41447   1.00
C3b      1.20601    0.43195    0.38274   1.00
C5       1.18437    0.45122    0.34961   1.00
H2       1.16629    0.47558    0.36086   1.00
H2       1.20449    0.46322    0.32723   1.00
H2       1.16495    0.42977    0.33510   1.00
C3b      1.20704    0.39680    0.44519   1.00
C5       1.18652    0.37817    0.47937   1.00
H2       1.16717    0.35437    0.46905   1.00
H2       1.20735    0.36555    0.50073   1.00
H2       1.16850    0.40017    0.49482   1.00
C3a      1.24655    0.43115    0.38206   1.00
H1       1.26200    0.44434    0.35781   1.00
C3a      1.24757    0.39638    0.44383   1.00
H1       1.26381    0.38271    0.46729   1.00
C2       1.26743    0.41346    0.41244   1.00
C2       0.91244    0.26743    0.41654   1.00
C3a      0.89558    0.24616    0.44712   1.00
H1       0.88176    0.26131    0.47122   1.00
C3a      0.93032    0.24796    0.38535   1.00
H1       0.94334    0.26449    0.36173   1.00
C3b      0.89640    0.20562    0.44685   1.00
C5       0.87800    0.18356    0.48019   1.00
H2       0.90019    0.16516    0.49490   1.00
H2       0.86519    0.20339    0.50237   1.00
H2       0.85438    0.16440    0.46911   1.00
C3b      0.93152    0.20744    0.38440   1.00
C5       0.95098    0.18733    0.35043   1.00
H2       0.92972    0.16830    0.33515   1.00
H2       0.96277    0.20845    0.32887   1.00
H2       0.97553    0.16906    0.36094   1.00
C4       0.91447    0.18627    0.41532   1.00
C4       0.91553    0.14373    0.41468   1.00
C3b      0.94726    0.12399    0.43195   1.00
C5       0.98039    0.14563    0.45122   1.00
H2       0.96914    0.16371    0.47558   1.00
H2       1.00277    0.12551    0.46322   1.00
H2       0.99490    0.16505    0.42977   1.00
C3b      0.88481    0.12296    0.39680   1.00
C5       0.85063    0.14348    0.37817   1.00
H2       0.86095    0.16283    0.35437   1.00
H2       0.82927    0.12265    0.36555   1.00
H2       0.83518    0.16150    0.40017   1.00
C3a      0.94794    0.08345    0.43115   1.00
H1       0.97219    0.06800    0.44434   1.00
C3a      0.88617    0.08243    0.39638   1.00
H1       0.86271    0.06619    0.38271   1.00
C2       0.91756    0.06257    0.41346   1.00
C2       0.91654    0.41244    0.26743   1.00
C3a      0.94712    0.39558    0.24616   1.00
H1       0.97122    0.38176    0.26131   1.00
C3a      0.88535    0.43032    0.24796   1.00
H1       0.86173    0.44334    0.26449   1.00
C3b      0.94685    0.39640    0.20562   1.00
C5       0.98019    0.37800    0.18356   1.00
H2       0.99490    0.40019    0.16516   1.00
H2       1.00237    0.36519    0.20339   1.00
H2       0.96911    0.35438    0.16440   1.00
C3b      0.88440    0.43152    0.20744   1.00
C5       0.85043    0.45098    0.18733   1.00
H2       0.83515    0.42972    0.16830   1.00
H2       0.82887    0.46277    0.20845   1.00
H2       0.86094    0.47553    0.16906   1.00
C4       0.91532    0.41447    0.18627   1.00
C4       0.91468    0.41553    0.14373   1.00
C3b      0.93195    0.44726    0.12399   1.00
C5       0.95122    0.48039    0.14563   1.00
H2       0.97558    0.46914    0.16371   1.00
H2       0.96322    0.50277    0.12551   1.00
H2       0.92977    0.49490    0.16505   1.00
C3b      0.89680    0.38481    0.12296   1.00
C5       0.87817    0.35063    0.14348   1.00
H2       0.85437    0.36095    0.16283   1.00
H2       0.86555    0.32927    0.12265   1.00
H2       0.90017    0.33518    0.16150   1.00
C3a      0.93115    0.44794    0.08345   1.00
H1       0.94434    0.47219    0.06800   1.00
C3a      0.89638    0.38617    0.08243   1.00
H1       0.88271    0.36271    0.06619   1.00
C2       0.91346    0.41756    0.06257   1.00
