data_IRMOF10_SG202_interpen_Ligand9cp_label_w.

_audit_creation_method             'generated by an auxiliary program of Tobunporous'

_symmetry_space_group_name_H-M     'P 1'
_symmetry_Int_Tables_number        1
_symmetry_cell_setting             triclinic

_cell_length_a                    34.2800
_cell_length_b                    34.2800
_cell_length_c                    34.2800
_cell_angle_alpha                 90.0000
_cell_angle_beta                  90.0000
_cell_angle_gamma                 90.0000

loop_
_atom_site_label
_atom_site_fract_x
_atom_site_fract_y
_atom_site_fract_z
_atom_site_occupancy
O1       0.75000    0.75000    0.75000   1.00
Zn1      0.71720    0.78280    0.78280   1.00
Zn1      0.78280    0.71720    0.78280   1.00
Zn1      0.78280    0.78280    0.71720   1.00
Zn1      0.71720    0.71720    0.71720   1.00
O2       0.72650    0.77350    0.83820   1.00
O2       0.72650    0.83820    0.77350   1.00
O2       0.66180    0.77350    0.77350   1.00
O2       0.77350    0.72650    0.83820   1.00
O2       0.83820    0.72650    0.77350   1.00
O2       0.77350    0.66180    0.77350   1.00
O2       0.77350    0.83820    0.72650   1.00
O2       0.83820    0.77350    0.72650   1.00
O2       0.77350    0.77350    0.66180   1.00
O2       0.66180    0.72650    0.72650   1.00
O2       0.72650    0.66180    0.72650   1.00
O2       0.72650    0.72650    0.66180   1.00
C1       0.75000    0.75000    0.85520   1.00
C1       0.75000    0.85520    0.75000   1.00
C1       0.64480    0.75000    0.75000   1.00
C1       0.85520    0.75000    0.75000   1.00
C1       0.75000    0.64480    0.75000   1.00
C1       0.75000    0.75000    0.64480   1.00
O1       0.25000    0.25000    0.75000   1.00
Zn1      0.21720    0.28280    0.78280   1.00
Zn1      0.28280    0.21720    0.78280   1.00
Zn1      0.28280    0.28280    0.71720   1.00
Zn1      0.21720    0.21720    0.71720   1.00
O2       0.22650    0.27350    0.83820   1.00
O2       0.22650    0.33820    0.77350   1.00
O2       0.16180    0.27350    0.77350   1.00
O2       0.27350    0.22650    0.83820   1.00
O2       0.33820    0.22650    0.77350   1.00
O2       0.27350    0.16180    0.77350   1.00
O2       0.27350    0.33820    0.72650   1.00
O2       0.33820    0.27350    0.72650   1.00
O2       0.27350    0.27350    0.66180   1.00
O2       0.16180    0.22650    0.72650   1.00
O2       0.22650    0.16180    0.72650   1.00
O2       0.22650    0.22650    0.66180   1.00
C1       0.25000    0.25000    0.85520   1.00
C1       0.25000    0.35520    0.75000   1.00
C1       0.14480    0.25000    0.75000   1.00
C1       0.35520    0.25000    0.75000   1.00
C1       0.25000    0.14480    0.75000   1.00
C1       0.25000    0.25000    0.64480   1.00
O1       0.25000    0.75000    0.25000   1.00
Zn1      0.21720    0.78280    0.28280   1.00
Zn1      0.28280    0.71720    0.28280   1.00
Zn1      0.28280    0.78280    0.21720   1.00
Zn1      0.21720    0.71720    0.21720   1.00
O2       0.22650    0.77350    0.33820   1.00
O2       0.22650    0.83820    0.27350   1.00
O2       0.16180    0.77350    0.27350   1.00
O2       0.27350    0.72650    0.33820   1.00
O2       0.33820    0.72650    0.27350   1.00
O2       0.27350    0.66180    0.27350   1.00
O2       0.27350    0.83820    0.22650   1.00
O2       0.33820    0.77350    0.22650   1.00
O2       0.27350    0.77350    0.16180   1.00
O2       0.16180    0.72650    0.22650   1.00
O2       0.22650    0.66180    0.22650   1.00
O2       0.22650    0.72650    0.16180   1.00
C1       0.25000    0.75000    0.35520   1.00
C1       0.25000    0.85520    0.25000   1.00
C1       0.14480    0.75000    0.25000   1.00
C1       0.35520    0.75000    0.25000   1.00
C1       0.25000    0.64480    0.25000   1.00
C1       0.25000    0.75000    0.14480   1.00
O1       0.75000    0.25000    0.25000   1.00
Zn1      0.71720    0.28280    0.28280   1.00
Zn1      0.78280    0.21720    0.28280   1.00
Zn1      0.78280    0.28280    0.21720   1.00
Zn1      0.71720    0.21720    0.21720   1.00
O2       0.72650    0.27350    0.33820   1.00
O2       0.72650    0.33820    0.27350   1.00
O2       0.66180    0.27350    0.27350   1.00
O2       0.77350    0.22650    0.33820   1.00
O2       0.83820    0.22650    0.27350   1.00
O2       0.77350    0.16180    0.27350   1.00
O2       0.77350    0.33820    0.22650   1.00
O2       0.83820    0.27350    0.22650   1.00
O2       0.77350    0.27350    0.16180   1.00
O2       0.66180    0.22650    0.22650   1.00
O2       0.72650    0.16180    0.22650   1.00
O2       0.72650    0.22650    0.16180   1.00
C1       0.75000    0.25000    0.35520   1.00
C1       0.75000    0.35520    0.25000   1.00
C1       0.64480    0.25000    0.25000   1.00
C1       0.85520    0.25000    0.25000   1.00
C1       0.75000    0.14480    0.25000   1.00
C1       0.75000    0.25000    0.14480   1.00
O1       0.25000    0.25000    0.25000   1.00
Zn1      0.28280    0.21720    0.21720   1.00
Zn1      0.21720    0.28280    0.21720   1.00
Zn1      0.21720    0.21720    0.28280   1.00
Zn1      0.28280    0.28280    0.28280   1.00
O2       0.27350    0.22650    0.16180   1.00
O2       0.27350    0.16180    0.22650   1.00
O2       0.33820    0.22650    0.22650   1.00
O2       0.22650    0.27350    0.16180   1.00
O2       0.16180    0.27350    0.22650   1.00
O2       0.22650    0.33820    0.22650   1.00
O2       0.22650    0.16180    0.27350   1.00
O2       0.16180    0.22650    0.27350   1.00
O2       0.22650    0.22650    0.33820   1.00
O2       0.33820    0.27350    0.27350   1.00
O2       0.27350    0.33820    0.27350   1.00
O2       0.27350    0.27350    0.33820   1.00
C1       0.25000    0.25000    0.14480   1.00
C1       0.25000    0.14480    0.25000   1.00
C1       0.35520    0.25000    0.25000   1.00
C1       0.14480    0.25000    0.25000   1.00
C1       0.25000    0.35520    0.25000   1.00
C1       0.25000    0.25000    0.35520   1.00
O1       0.75000    0.75000    0.25000   1.00
Zn1      0.78280    0.71720    0.21720   1.00
Zn1      0.71720    0.78280    0.21720   1.00
Zn1      0.71720    0.71720    0.28280   1.00
Zn1      0.78280    0.78280    0.28280   1.00
O2       0.77350    0.72650    0.16180   1.00
O2       0.77350    0.66180    0.22650   1.00
O2       0.83820    0.72650    0.22650   1.00
O2       0.72650    0.77350    0.16180   1.00
O2       0.66180    0.77350    0.22650   1.00
O2       0.72650    0.83820    0.22650   1.00
O2       0.72650    0.66180    0.27350   1.00
O2       0.66180    0.72650    0.27350   1.00
O2       0.72650    0.72650    0.33820   1.00
O2       0.83820    0.77350    0.27350   1.00
O2       0.77350    0.83820    0.27350   1.00
O2       0.77350    0.77350    0.33820   1.00
C1       0.75000    0.75000    0.14480   1.00
C1       0.75000    0.64480    0.25000   1.00
C1       0.85520    0.75000    0.25000   1.00
C1       0.64480    0.75000    0.25000   1.00
C1       0.75000    0.85520    0.25000   1.00
C1       0.75000    0.75000    0.35520   1.00
O1       0.75000    0.25000    0.75000   1.00
Zn1      0.78280    0.21720    0.71720   1.00
Zn1      0.71720    0.28280    0.71720   1.00
Zn1      0.71720    0.21720    0.78280   1.00
Zn1      0.78280    0.28280    0.78280   1.00
O2       0.77350    0.22650    0.66180   1.00
O2       0.77350    0.16180    0.72650   1.00
O2       0.83820    0.22650    0.72650   1.00
O2       0.72650    0.27350    0.66180   1.00
O2       0.66180    0.27350    0.72650   1.00
O2       0.72650    0.33820    0.72650   1.00
O2       0.72650    0.16180    0.77350   1.00
O2       0.66180    0.22650    0.77350   1.00
O2       0.72650    0.22650    0.83820   1.00
O2       0.83820    0.27350    0.77350   1.00
O2       0.77350    0.33820    0.77350   1.00
O2       0.77350    0.27350    0.83820   1.00
C1       0.75000    0.25000    0.64480   1.00
C1       0.75000    0.14480    0.75000   1.00
C1       0.85520    0.25000    0.75000   1.00
C1       0.64480    0.25000    0.75000   1.00
C1       0.75000    0.35520    0.75000   1.00
C1       0.75000    0.25000    0.85520   1.00
O1       0.25000    0.75000    0.75000   1.00
Zn1      0.28280    0.71720    0.71720   1.00
Zn1      0.21720    0.78280    0.71720   1.00
Zn1      0.21720    0.71720    0.78280   1.00
Zn1      0.28280    0.78280    0.78280   1.00
O2       0.27350    0.72650    0.66180   1.00
O2       0.27350    0.66180    0.72650   1.00
O2       0.33820    0.72650    0.72650   1.00
O2       0.22650    0.77350    0.66180   1.00
O2       0.16180    0.77350    0.72650   1.00
O2       0.22650    0.83820    0.72650   1.00
O2       0.22650    0.66180    0.77350   1.00
O2       0.16180    0.72650    0.77350   1.00
O2       0.22650    0.72650    0.83820   1.00
O2       0.33820    0.77350    0.77350   1.00
O2       0.27350    0.83820    0.77350   1.00
O2       0.27350    0.77350    0.83820   1.00
C1       0.25000    0.75000    0.64480   1.00
C1       0.25000    0.64480    0.75000   1.00
C1       0.35520    0.75000    0.75000   1.00
C1       0.14480    0.75000    0.75000   1.00
C1       0.25000    0.85520    0.75000   1.00
C1       0.25000    0.75000    0.85520   1.00
O1       0.91500    0.91500    0.91500   1.00
Zn1      0.88220    0.94780    0.94780   1.00
Zn1      0.94780    0.88220    0.94780   1.00
Zn1      0.94780    0.94780    0.88220   1.00
Zn1      0.88220    0.88220    0.88220   1.00
O2       0.89150    0.93850    1.00320   1.00
O2       0.89150    1.00320    0.93850   1.00
O2       0.82680    0.93850    0.93850   1.00
O2       0.93850    0.89150    1.00320   1.00
O2       1.00320    0.89150    0.93850   1.00
O2       0.93850    0.82680    0.93850   1.00
O2       0.93850    1.00320    0.89150   1.00
O2       1.00320    0.93850    0.89150   1.00
O2       0.93850    0.93850    0.82680   1.00
O2       0.82680    0.89150    0.89150   1.00
O2       0.89150    0.82680    0.89150   1.00
O2       0.89150    0.89150    0.82680   1.00
C1       0.91500    0.91500    1.02020   1.00
C1       0.91500    1.02020    0.91500   1.00
C1       0.80980    0.91500    0.91500   1.00
C1       1.02020    0.91500    0.91500   1.00
C1       0.91500    0.80980    0.91500   1.00
C1       0.91500    0.91500    0.80980   1.00
O1       0.41500    0.41500    0.91500   1.00
Zn1      0.38220    0.44780    0.94780   1.00
Zn1      0.44780    0.38220    0.94780   1.00
Zn1      0.44780    0.44780    0.88220   1.00
Zn1      0.38220    0.38220    0.88220   1.00
O2       0.39150    0.43850    1.00320   1.00
O2       0.39150    0.50320    0.93850   1.00
O2       0.32680    0.43850    0.93850   1.00
O2       0.43850    0.39150    1.00320   1.00
O2       0.50320    0.39150    0.93850   1.00
O2       0.43850    0.32680    0.93850   1.00
O2       0.43850    0.50320    0.89150   1.00
O2       0.50320    0.43850    0.89150   1.00
O2       0.43850    0.43850    0.82680   1.00
O2       0.32680    0.39150    0.89150   1.00
O2       0.39150    0.32680    0.89150   1.00
O2       0.39150    0.39150    0.82680   1.00
C1       0.41500    0.41500    1.02020   1.00
C1       0.41500    0.52020    0.91500   1.00
C1       0.30980    0.41500    0.91500   1.00
C1       0.52020    0.41500    0.91500   1.00
C1       0.41500    0.30980    0.91500   1.00
C1       0.41500    0.41500    0.80980   1.00
O1       0.41500    0.91500    0.41500   1.00
Zn1      0.38220    0.94780    0.44780   1.00
Zn1      0.44780    0.88220    0.44780   1.00
Zn1      0.44780    0.94780    0.38220   1.00
Zn1      0.38220    0.88220    0.38220   1.00
O2       0.39150    0.93850    0.50320   1.00
O2       0.39150    1.00320    0.43850   1.00
O2       0.32680    0.93850    0.43850   1.00
O2       0.43850    0.89150    0.50320   1.00
O2       0.50320    0.89150    0.43850   1.00
O2       0.43850    0.82680    0.43850   1.00
O2       0.43850    1.00320    0.39150   1.00
O2       0.50320    0.93850    0.39150   1.00
O2       0.43850    0.93850    0.32680   1.00
O2       0.32680    0.89150    0.39150   1.00
O2       0.39150    0.82680    0.39150   1.00
O2       0.39150    0.89150    0.32680   1.00
C1       0.41500    0.91500    0.52020   1.00
C1       0.41500    1.02020    0.41500   1.00
C1       0.30980    0.91500    0.41500   1.00
C1       0.52020    0.91500    0.41500   1.00
C1       0.41500    0.80980    0.41500   1.00
C1       0.41500    0.91500    0.30980   1.00
O1       0.91500    0.41500    0.41500   1.00
Zn1      0.88220    0.44780    0.44780   1.00
Zn1      0.94780    0.38220    0.44780   1.00
Zn1      0.94780    0.44780    0.38220   1.00
Zn1      0.88220    0.38220    0.38220   1.00
O2       0.89150    0.43850    0.50320   1.00
O2       0.89150    0.50320    0.43850   1.00
O2       0.82680    0.43850    0.43850   1.00
O2       0.93850    0.39150    0.50320   1.00
O2       1.00320    0.39150    0.43850   1.00
O2       0.93850    0.32680    0.43850   1.00
O2       0.93850    0.50320    0.39150   1.00
O2       1.00320    0.43850    0.39150   1.00
O2       0.93850    0.43850    0.32680   1.00
O2       0.82680    0.39150    0.39150   1.00
O2       0.89150    0.32680    0.39150   1.00
O2       0.89150    0.39150    0.32680   1.00
C1       0.91500    0.41500    0.52020   1.00
C1       0.91500    0.52020    0.41500   1.00
C1       0.80980    0.41500    0.41500   1.00
C1       1.02020    0.41500    0.41500   1.00
C1       0.91500    0.30980    0.41500   1.00
C1       0.91500    0.41500    0.30980   1.00
O1       0.41500    0.41500    0.41500   1.00
Zn1      0.44780    0.38220    0.38220   1.00
Zn1      0.38220    0.44780    0.38220   1.00
Zn1      0.38220    0.38220    0.44780   1.00
Zn1      0.44780    0.44780    0.44780   1.00
O2       0.43850    0.39150    0.32680   1.00
O2       0.43850    0.32680    0.39150   1.00
O2       0.50320    0.39150    0.39150   1.00
O2       0.39150    0.43850    0.32680   1.00
O2       0.32680    0.43850    0.39150   1.00
O2       0.39150    0.50320    0.39150   1.00
O2       0.39150    0.32680    0.43850   1.00
O2       0.32680    0.39150    0.43850   1.00
O2       0.39150    0.39150    0.50320   1.00
O2       0.50320    0.43850    0.43850   1.00
O2       0.43850    0.50320    0.43850   1.00
O2       0.43850    0.43850    0.50320   1.00
C1       0.41500    0.41500    0.30980   1.00
C1       0.41500    0.30980    0.41500   1.00
C1       0.52020    0.41500    0.41500   1.00
C1       0.30980    0.41500    0.41500   1.00
C1       0.41500    0.52020    0.41500   1.00
C1       0.41500    0.41500    0.52020   1.00
O1       0.91500    0.91500    0.41500   1.00
Zn1      0.94780    0.88220    0.38220   1.00
Zn1      0.88220    0.94780    0.38220   1.00
Zn1      0.88220    0.88220    0.44780   1.00
Zn1      0.94780    0.94780    0.44780   1.00
O2       0.93850    0.89150    0.32680   1.00
O2       0.93850    0.82680    0.39150   1.00
O2       1.00320    0.89150    0.39150   1.00
O2       0.89150    0.93850    0.32680   1.00
O2       0.82680    0.93850    0.39150   1.00
O2       0.89150    1.00320    0.39150   1.00
O2       0.89150    0.82680    0.43850   1.00
O2       0.82680    0.89150    0.43850   1.00
O2       0.89150    0.89150    0.50320   1.00
O2       1.00320    0.93850    0.43850   1.00
O2       0.93850    1.00320    0.43850   1.00
O2       0.93850    0.93850    0.50320   1.00
C1       0.91500    0.91500    0.30980   1.00
C1       0.91500    0.80980    0.41500   1.00
C1       1.02020    0.91500    0.41500   1.00
C1       0.80980    0.91500    0.41500   1.00
C1       0.91500    1.02020    0.41500   1.00
C1       0.91500    0.91500    0.52020   1.00
O1       0.91500    0.41500    0.91500   1.00
Zn1      0.94780    0.38220    0.88220   1.00
Zn1      0.88220    0.44780    0.88220   1.00
Zn1      0.88220    0.38220    0.94780   1.00
Zn1      0.94780    0.44780    0.94780   1.00
O2       0.93850    0.39150    0.82680   1.00
O2       0.93850    0.32680    0.89150   1.00
O2       1.00320    0.39150    0.89150   1.00
O2       0.89150    0.43850    0.82680   1.00
O2       0.82680    0.43850    0.89150   1.00
O2       0.89150    0.50320    0.89150   1.00
O2       0.89150    0.32680    0.93850   1.00
O2       0.82680    0.39150    0.93850   1.00
O2       0.89150    0.39150    1.00320   1.00
O2       1.00320    0.43850    0.93850   1.00
O2       0.93850    0.50320    0.93850   1.00
O2       0.93850    0.43850    1.00320   1.00
C1       0.91500    0.41500    0.80980   1.00
C1       0.91500    0.30980    0.91500   1.00
C1       1.02020    0.41500    0.91500   1.00
C1       0.80980    0.41500    0.91500   1.00
C1       0.91500    0.52020    0.91500   1.00
C1       0.91500    0.41500    1.02020   1.00
O1       0.41500    0.91500    0.91500   1.00
Zn1      0.44780    0.88220    0.88220   1.00
Zn1      0.38220    0.94780    0.88220   1.00
Zn1      0.38220    0.88220    0.94780   1.00
Zn1      0.44780    0.94780    0.94780   1.00
O2       0.43850    0.89150    0.82680   1.00
O2       0.43850    0.82680    0.89150   1.00
O2       0.50320    0.89150    0.89150   1.00
O2       0.39150    0.93850    0.82680   1.00
O2       0.32680    0.93850    0.89150   1.00
O2       0.39150    1.00320    0.89150   1.00
O2       0.39150    0.82680    0.93850   1.00
O2       0.32680    0.89150    0.93850   1.00
O2       0.39150    0.89150    1.00320   1.00
O2       0.50320    0.93850    0.93850   1.00
O2       0.43850    1.00320    0.93850   1.00
O2       0.43850    0.93850    1.00320   1.00
C1       0.41500    0.91500    0.80980   1.00
C1       0.41500    0.80980    0.91500   1.00
C1       0.52020    0.91500    0.91500   1.00
C1       0.30980    0.91500    0.91500   1.00
C1       0.41500    1.02020    0.91500   1.00
C1       0.41500    0.91500    1.02020   1.00
C4       0.74940    0.75050    0.97917   1.00
C4       0.75060    0.74950    1.02083   1.00
C3       0.73790    0.78435    0.95846   1.00
C3       0.76394    0.78153    1.04321   1.00
C3       0.76062    0.71784    0.95643   1.00
C3       0.73744    0.71648    1.04187   1.00
C2       0.74890    0.75285    0.89487   1.00
C2       0.75107    0.74747    1.10514   1.00
C3       0.73763    0.78541    0.91715   1.00
C3       0.76420    0.78043    1.08449   1.00
C3       0.76033    0.71907    0.91514   1.00
C3a      0.73765    0.71526    1.08328   1.00
H1       0.72868    0.81011    0.97425   1.00
H1       0.77471    0.80746    1.02875   1.00
H1       0.72856    0.81182    0.90240   1.00
H1       0.77481    0.80548    1.10056   1.00
H1       0.76931    0.69356    0.89882   1.00
C5       0.72301    0.67928    1.10380   1.00
H1       0.72661    0.69130    1.02622   1.00
H1       0.77046    0.69136    0.97059   1.00
H2       0.72563    0.68235    1.13599   1.00
H2       0.69150    0.67562    1.09705   1.00
N1       0.74497    0.64489    1.09125   1.00
C6       0.78345    0.63886    1.09644   1.00
C6       0.73043    0.61334    1.07288   1.00
C6       0.79371    0.60314    1.08102   1.00
C6       0.75999    0.58691    1.06604   1.00
H3       0.80306    0.65929    1.11049   1.00
H3       0.70011    0.60960    1.06484   1.00
H3       0.82255    0.59034    1.08076   1.00
H3       0.75726    0.55890    1.05180   1.00
C4       0.75050    0.97917    0.74940   1.00
C4       0.74950    1.02083    0.75060   1.00
C3       0.78435    0.95846    0.73790   1.00
C3       0.78153    1.04321    0.76394   1.00
C3       0.71784    0.95643    0.76062   1.00
C3       0.71648    1.04187    0.73744   1.00
C2       0.75285    0.89487    0.74890   1.00
C2       0.74747    1.10514    0.75107   1.00
C3       0.78541    0.91715    0.73763   1.00
C3       0.78043    1.08449    0.76420   1.00
C3       0.71907    0.91514    0.76033   1.00
C3a      0.71526    1.08328    0.73765   1.00
H1       0.81011    0.97425    0.72868   1.00
H1       0.80746    1.02875    0.77471   1.00
H1       0.81182    0.90240    0.72856   1.00
H1       0.80548    1.10056    0.77481   1.00
H1       0.69356    0.89882    0.76931   1.00
C5       0.67928    1.10380    0.72301   1.00
H1       0.69130    1.02622    0.72661   1.00
H1       0.69136    0.97059    0.77046   1.00
H2       0.68235    1.13599    0.72563   1.00
H2       0.67562    1.09705    0.69150   1.00
N1       0.64489    1.09125    0.74497   1.00
C6       0.63886    1.09644    0.78345   1.00
C6       0.61334    1.07288    0.73043   1.00
C6       0.60314    1.08102    0.79371   1.00
C6       0.58691    1.06604    0.75999   1.00
H3       0.65929    1.11049    0.80306   1.00
H3       0.60960    1.06484    0.70011   1.00
H3       0.59034    1.08076    0.82255   1.00
H3       0.55890    1.05180    0.75726   1.00
C4       0.52083    0.74940    0.74950   1.00
C4       0.47917    0.75060    0.75050   1.00
C3       0.54154    0.73790    0.71565   1.00
C3       0.45679    0.76394    0.71847   1.00
C3       0.54357    0.76062    0.78216   1.00
C3       0.45813    0.73744    0.78352   1.00
C2       0.60513    0.74890    0.74715   1.00
C2       0.39486    0.75107    0.75253   1.00
C3       0.58285    0.73763    0.71459   1.00
C3       0.41551    0.76420    0.71957   1.00
C3       0.58486    0.76033    0.78093   1.00
C3a      0.41672    0.73765    0.78474   1.00
H1       0.52575    0.72868    0.68989   1.00
H1       0.47125    0.77471    0.69254   1.00
H1       0.59760    0.72856    0.68818   1.00
H1       0.39944    0.77481    0.69452   1.00
H1       0.60118    0.76931    0.80644   1.00
C5       0.39620    0.72301    0.82072   1.00
H1       0.47378    0.72661    0.80870   1.00
H1       0.52941    0.77046    0.80864   1.00
H2       0.36401    0.72563    0.81765   1.00
H2       0.40295    0.69150    0.82438   1.00
N1       0.40875    0.74497    0.85511   1.00
C6       0.40356    0.78345    0.86114   1.00
C6       0.42712    0.73043    0.88666   1.00
C6       0.41898    0.79371    0.89686   1.00
C6       0.43396    0.75999    0.91309   1.00
H3       0.38951    0.80306    0.84071   1.00
H3       0.43516    0.70011    0.89040   1.00
H3       0.41924    0.82255    0.90966   1.00
H3       0.44820    0.75726    0.94110   1.00
C4       0.97917    0.74940    0.75050   1.00
C4       1.02083    0.75060    0.74950   1.00
C3       0.95846    0.73790    0.78435   1.00
C3       1.04321    0.76394    0.78153   1.00
C3       0.95643    0.76062    0.71784   1.00
C3       1.04187    0.73744    0.71648   1.00
C2       0.89487    0.74890    0.75285   1.00
C2       1.10514    0.75107    0.74747   1.00
C3       0.91715    0.73763    0.78541   1.00
C3       1.08449    0.76420    0.78043   1.00
C3       0.91514    0.76033    0.71907   1.00
C3a      1.08328    0.73765    0.71526   1.00
H1       0.97425    0.72868    0.81011   1.00
H1       1.02875    0.77471    0.80746   1.00
H1       0.90240    0.72856    0.81182   1.00
H1       1.10056    0.77481    0.80548   1.00
H1       0.89882    0.76931    0.69356   1.00
C5       1.10380    0.72301    0.67928   1.00
H1       1.02622    0.72661    0.69130   1.00
H1       0.97059    0.77046    0.69136   1.00
H2       1.13599    0.72563    0.68235   1.00
H2       1.09705    0.69150    0.67562   1.00
N1       1.09125    0.74497    0.64489   1.00
C6       1.09644    0.78345    0.63886   1.00
C6       1.07288    0.73043    0.61334   1.00
C6       1.08102    0.79371    0.60314   1.00
C6       1.06604    0.75999    0.58691   1.00
H3       1.11049    0.80306    0.65929   1.00
H3       1.06484    0.70011    0.60960   1.00
H3       1.08076    0.82255    0.59034   1.00
H3       1.05180    0.75726    0.55890   1.00
C4       0.74950    0.52083    0.74940   1.00
C4       0.75050    0.47917    0.75060   1.00
C3       0.71565    0.54154    0.73790   1.00
C3       0.71847    0.45679    0.76394   1.00
C3       0.78216    0.54357    0.76062   1.00
C3       0.78352    0.45813    0.73744   1.00
C2       0.74715    0.60513    0.74890   1.00
C2       0.75253    0.39486    0.75107   1.00
C3       0.71459    0.58285    0.73763   1.00
C3       0.71957    0.41551    0.76420   1.00
C3       0.78093    0.58486    0.76033   1.00
C3a      0.78474    0.41672    0.73765   1.00
H1       0.68989    0.52575    0.72868   1.00
H1       0.69254    0.47125    0.77471   1.00
H1       0.68818    0.59760    0.72856   1.00
H1       0.69452    0.39944    0.77481   1.00
H1       0.80644    0.60118    0.76931   1.00
C5       0.82072    0.39620    0.72301   1.00
H1       0.80870    0.47378    0.72661   1.00
H1       0.80864    0.52941    0.77046   1.00
H2       0.81765    0.36401    0.72563   1.00
H2       0.82438    0.40295    0.69150   1.00
N1       0.85511    0.40875    0.74497   1.00
C6       0.86114    0.40356    0.78345   1.00
C6       0.88666    0.42712    0.73043   1.00
C6       0.89686    0.41898    0.79371   1.00
C6       0.91309    0.43396    0.75999   1.00
H3       0.84071    0.38951    0.80306   1.00
H3       0.89040    0.43516    0.70011   1.00
H3       0.90966    0.41924    0.82255   1.00
H3       0.94110    0.44820    0.75726   1.00
C4       0.74940    0.74950    0.52083   1.00
C4       0.75060    0.75050    0.47917   1.00
C3       0.73790    0.71565    0.54154   1.00
C3       0.76394    0.71847    0.45679   1.00
C3       0.76062    0.78216    0.54357   1.00
C3       0.73744    0.78352    0.45813   1.00
C2       0.74890    0.74715    0.60513   1.00
C2       0.75107    0.75253    0.39486   1.00
C3       0.73763    0.71459    0.58285   1.00
C3       0.76420    0.71957    0.41551   1.00
C3       0.76033    0.78093    0.58486   1.00
C3a      0.73765    0.78474    0.41672   1.00
H1       0.72868    0.68989    0.52575   1.00
H1       0.77471    0.69254    0.47125   1.00
H1       0.72856    0.68818    0.59760   1.00
H1       0.77481    0.69452    0.39944   1.00
H1       0.76931    0.80644    0.60118   1.00
C5       0.72301    0.82072    0.39620   1.00
H1       0.72661    0.80870    0.47378   1.00
H1       0.77046    0.80864    0.52941   1.00
H2       0.72563    0.81765    0.36401   1.00
H2       0.69150    0.82438    0.40295   1.00
N1       0.74497    0.85511    0.40875   1.00
C6       0.78345    0.86114    0.40356   1.00
C6       0.73043    0.88666    0.42712   1.00
C6       0.79371    0.89686    0.41898   1.00
C6       0.75999    0.91309    0.43396   1.00
H3       0.80306    0.84071    0.38951   1.00
H3       0.70011    0.89040    0.43516   1.00
H3       0.82255    0.90966    0.41924   1.00
H3       0.75726    0.94110    0.44820   1.00
C4       0.24940    0.25050    0.97917   1.00
C4       0.25060    0.24950    1.02083   1.00
C3       0.23790    0.28435    0.95846   1.00
C3       0.26394    0.28153    1.04321   1.00
C3       0.26062    0.21784    0.95643   1.00
C3       0.23744    0.21648    1.04187   1.00
C2       0.24890    0.25285    0.89487   1.00
C2       0.25107    0.24747    1.10514   1.00
C3       0.23763    0.28541    0.91715   1.00
C3       0.26420    0.28043    1.08449   1.00
C3       0.26033    0.21907    0.91514   1.00
C3a      0.23765    0.21526    1.08328   1.00
H1       0.22868    0.31011    0.97425   1.00
H1       0.27471    0.30746    1.02875   1.00
H1       0.22856    0.31182    0.90240   1.00
H1       0.27481    0.30548    1.10056   1.00
H1       0.26931    0.19356    0.89882   1.00
C5       0.22301    0.17928    1.10380   1.00
H1       0.22661    0.19130    1.02622   1.00
H1       0.27046    0.19136    0.97059   1.00
H2       0.22563    0.18235    1.13599   1.00
H2       0.19150    0.17562    1.09705   1.00
N1       0.24497    0.14489    1.09125   1.00
C6       0.28345    0.13886    1.09644   1.00
C6       0.23043    0.11334    1.07288   1.00
C6       0.29371    0.10314    1.08102   1.00
C6       0.25999    0.08691    1.06604   1.00
H3       0.30306    0.15929    1.11049   1.00
H3       0.20011    0.10960    1.06484   1.00
H3       0.32255    0.09034    1.08076   1.00
H3       0.25726    0.05890    1.05180   1.00
C4       0.25050    0.47917    0.74940   1.00
C4       0.24950    0.52083    0.75060   1.00
C3       0.28435    0.45846    0.73790   1.00
C3       0.28153    0.54321    0.76394   1.00
C3       0.21784    0.45643    0.76062   1.00
C3       0.21648    0.54187    0.73744   1.00
C2       0.25285    0.39487    0.74890   1.00
C2       0.24747    0.60514    0.75107   1.00
C3       0.28541    0.41715    0.73763   1.00
C3       0.28043    0.58449    0.76420   1.00
C3       0.21907    0.41514    0.76033   1.00
C3a      0.21526    0.58328    0.73765   1.00
H1       0.31011    0.47425    0.72868   1.00
H1       0.30746    0.52875    0.77471   1.00
H1       0.31182    0.40240    0.72856   1.00
H1       0.30548    0.60056    0.77481   1.00
H1       0.19356    0.39882    0.76931   1.00
C5       0.17928    0.60380    0.72301   1.00
H1       0.19130    0.52622    0.72661   1.00
H1       0.19136    0.47059    0.77046   1.00
H2       0.18235    0.63599    0.72563   1.00
H2       0.17562    0.59705    0.69150   1.00
N1       0.14489    0.59125    0.74497   1.00
C6       0.13886    0.59644    0.78345   1.00
C6       0.11334    0.57288    0.73043   1.00
C6       0.10314    0.58102    0.79371   1.00
C6       0.08691    0.56604    0.75999   1.00
H3       0.15929    0.61049    0.80306   1.00
H3       0.10960    0.56484    0.70011   1.00
H3       0.09034    0.58076    0.82255   1.00
H3       0.05890    0.55180    0.75726   1.00
C4       0.02083    0.24940    0.74950   1.00
C4       -0.02083   0.25060    0.75050   1.00
C3       0.04154    0.23790    0.71565   1.00
C3       -0.04321   0.26394    0.71847   1.00
C3       0.04357    0.26062    0.78216   1.00
C3       -0.04187   0.23744    0.78352   1.00
C2       0.10513    0.24890    0.74715   1.00
C2       -0.10514   0.25107    0.75253   1.00
C3       0.08285    0.23763    0.71459   1.00
C3       -0.08449   0.26420    0.71957   1.00
C3       0.08486    0.26033    0.78093   1.00
C3a      -0.08328   0.23765    0.78474   1.00
H1       0.02575    0.22868    0.68989   1.00
H1       -0.02875   0.27471    0.69254   1.00
H1       0.09760    0.22856    0.68818   1.00
H1       -0.10056   0.27481    0.69452   1.00
H1       0.10118    0.26931    0.80644   1.00
C5       -0.10380   0.22301    0.82072   1.00
H1       -0.02622   0.22661    0.80870   1.00
H1       0.02941    0.27046    0.80864   1.00
H2       -0.13599   0.22563    0.81765   1.00
H2       -0.09705   0.19150    0.82438   1.00
N1       -0.09125   0.24497    0.85511   1.00
C6       -0.09644   0.28345    0.86114   1.00
C6       -0.07288   0.23043    0.88666   1.00
C6       -0.08102   0.29371    0.89686   1.00
C6       -0.06604   0.25999    0.91309   1.00
H3       -0.11049   0.30306    0.84071   1.00
H3       -0.06484   0.20011    0.89040   1.00
H3       -0.08076   0.32255    0.90966   1.00
H3       -0.05180   0.25726    0.94110   1.00
C4       0.47917    0.24940    0.75050   1.00
C4       0.52083    0.25060    0.74950   1.00
C3       0.45846    0.23790    0.78435   1.00
C3       0.54321    0.26394    0.78153   1.00
C3       0.45643    0.26062    0.71784   1.00
C3       0.54187    0.23744    0.71648   1.00
C2       0.39487    0.24890    0.75285   1.00
C2       0.60514    0.25107    0.74747   1.00
C3       0.41715    0.23763    0.78541   1.00
C3       0.58449    0.26420    0.78043   1.00
C3       0.41514    0.26033    0.71907   1.00
C3a      0.58328    0.23765    0.71526   1.00
H1       0.47425    0.22868    0.81011   1.00
H1       0.52875    0.27471    0.80746   1.00
H1       0.40240    0.22856    0.81182   1.00
H1       0.60056    0.27481    0.80548   1.00
H1       0.39882    0.26931    0.69356   1.00
C5       0.60380    0.22301    0.67928   1.00
H1       0.52622    0.22661    0.69130   1.00
H1       0.47059    0.27046    0.69136   1.00
H2       0.63599    0.22563    0.68235   1.00
H2       0.59705    0.19150    0.67562   1.00
N1       0.59125    0.24497    0.64489   1.00
C6       0.59644    0.28345    0.63886   1.00
C6       0.57288    0.23043    0.61334   1.00
C6       0.58102    0.29371    0.60314   1.00
C6       0.56604    0.25999    0.58691   1.00
H3       0.61049    0.30306    0.65929   1.00
H3       0.56484    0.20011    0.60960   1.00
H3       0.58076    0.32255    0.59034   1.00
H3       0.55180    0.25726    0.55890   1.00
C4       0.24950    0.02083    0.74940   1.00
C4       0.25050    -0.02083   0.75060   1.00
C3       0.21565    0.04154    0.73790   1.00
C3       0.21847    -0.04321   0.76394   1.00
C3       0.28216    0.04357    0.76062   1.00
C3       0.28352    -0.04187   0.73744   1.00
C2       0.24715    0.10513    0.74890   1.00
C2       0.25253    -0.10514   0.75107   1.00
C3       0.21459    0.08285    0.73763   1.00
C3       0.21957    -0.08449   0.76420   1.00
C3       0.28093    0.08486    0.76033   1.00
C3a      0.28474    -0.08328   0.73765   1.00
H1       0.18989    0.02575    0.72868   1.00
H1       0.19254    -0.02875   0.77471   1.00
H1       0.18818    0.09760    0.72856   1.00
H1       0.19452    -0.10056   0.77481   1.00
H1       0.30644    0.10118    0.76931   1.00
C5       0.32072    -0.10380   0.72301   1.00
H1       0.30870    -0.02622   0.72661   1.00
H1       0.30864    0.02941    0.77046   1.00
H2       0.31765    -0.13599   0.72563   1.00
H2       0.32438    -0.09705   0.69150   1.00
N1       0.35511    -0.09125   0.74497   1.00
C6       0.36114    -0.09644   0.78345   1.00
C6       0.38666    -0.07288   0.73043   1.00
C6       0.39686    -0.08102   0.79371   1.00
C6       0.41309    -0.06604   0.75999   1.00
H3       0.34071    -0.11049   0.80306   1.00
H3       0.39040    -0.06484   0.70011   1.00
H3       0.40966    -0.08076   0.82255   1.00
H3       0.44110    -0.05180   0.75726   1.00
C4       0.24940    0.24950    0.52083   1.00
C4       0.25060    0.25050    0.47917   1.00
C3       0.23790    0.21565    0.54154   1.00
C3       0.26394    0.21847    0.45679   1.00
C3       0.26062    0.28216    0.54357   1.00
C3       0.23744    0.28352    0.45813   1.00
C2       0.24890    0.24715    0.60513   1.00
C2       0.25107    0.25253    0.39486   1.00
C3       0.23763    0.21459    0.58285   1.00
C3       0.26420    0.21957    0.41551   1.00
C3       0.26033    0.28093    0.58486   1.00
C3a      0.23765    0.28474    0.41672   1.00
H1       0.22868    0.18989    0.52575   1.00
H1       0.27471    0.19254    0.47125   1.00
H1       0.22856    0.18818    0.59760   1.00
H1       0.27481    0.19452    0.39944   1.00
H1       0.26931    0.30644    0.60118   1.00
C5       0.22301    0.32072    0.39620   1.00
H1       0.22661    0.30870    0.47378   1.00
H1       0.27046    0.30864    0.52941   1.00
H2       0.22563    0.31765    0.36401   1.00
H2       0.19150    0.32438    0.40295   1.00
N1       0.24497    0.35511    0.40875   1.00
C6       0.28345    0.36114    0.40356   1.00
C6       0.23043    0.38666    0.42712   1.00
C6       0.29371    0.39686    0.41898   1.00
C6       0.25999    0.41309    0.43396   1.00
H3       0.30306    0.34071    0.38951   1.00
H3       0.20011    0.39040    0.43516   1.00
H3       0.32255    0.40966    0.41924   1.00
H3       0.25726    0.44110    0.44820   1.00
C4       0.24940    0.75050    0.47917   1.00
C4       0.25060    0.74950    0.52083   1.00
C3       0.23790    0.78435    0.45846   1.00
C3       0.26394    0.78153    0.54321   1.00
C3       0.26062    0.71784    0.45643   1.00
C3       0.23744    0.71648    0.54187   1.00
C2       0.24890    0.75285    0.39487   1.00
C2       0.25107    0.74747    0.60514   1.00
C3       0.23763    0.78541    0.41715   1.00
C3       0.26420    0.78043    0.58449   1.00
C3       0.26033    0.71907    0.41514   1.00
C3a      0.23765    0.71526    0.58328   1.00
H1       0.22868    0.81011    0.47425   1.00
H1       0.27471    0.80746    0.52875   1.00
H1       0.22856    0.81182    0.40240   1.00
H1       0.27481    0.80548    0.60056   1.00
H1       0.26931    0.69356    0.39882   1.00
C5       0.22301    0.67928    0.60380   1.00
H1       0.22661    0.69130    0.52622   1.00
H1       0.27046    0.69136    0.47059   1.00
H2       0.22563    0.68235    0.63599   1.00
H2       0.19150    0.67562    0.59705   1.00
N1       0.24497    0.64489    0.59125   1.00
C6       0.28345    0.63886    0.59644   1.00
C6       0.23043    0.61334    0.57288   1.00
C6       0.29371    0.60314    0.58102   1.00
C6       0.25999    0.58691    0.56604   1.00
H3       0.30306    0.65929    0.61049   1.00
H3       0.20011    0.60960    0.56484   1.00
H3       0.32255    0.59034    0.58076   1.00
H3       0.25726    0.55890    0.55180   1.00
C4       0.25050    0.97917    0.24940   1.00
C4       0.24950    1.02083    0.25060   1.00
C3       0.28435    0.95846    0.23790   1.00
C3       0.28153    1.04321    0.26394   1.00
C3       0.21784    0.95643    0.26062   1.00
C3       0.21648    1.04187    0.23744   1.00
C2       0.25285    0.89487    0.24890   1.00
C2       0.24747    1.10514    0.25107   1.00
C3       0.28541    0.91715    0.23763   1.00
C3       0.28043    1.08449    0.26420   1.00
C3       0.21907    0.91514    0.26033   1.00
C3a      0.21526    1.08328    0.23765   1.00
H1       0.31011    0.97425    0.22868   1.00
H1       0.30746    1.02875    0.27471   1.00
H1       0.31182    0.90240    0.22856   1.00
H1       0.30548    1.10056    0.27481   1.00
H1       0.19356    0.89882    0.26931   1.00
C5       0.17928    1.10380    0.22301   1.00
H1       0.19130    1.02622    0.22661   1.00
H1       0.19136    0.97059    0.27046   1.00
H2       0.18235    1.13599    0.22563   1.00
H2       0.17562    1.09705    0.19150   1.00
N1       0.14489    1.09125    0.24497   1.00
C6       0.13886    1.09644    0.28345   1.00
C6       0.11334    1.07288    0.23043   1.00
C6       0.10314    1.08102    0.29371   1.00
C6       0.08691    1.06604    0.25999   1.00
H3       0.15929    1.11049    0.30306   1.00
H3       0.10960    1.06484    0.20011   1.00
H3       0.09034    1.08076    0.32255   1.00
H3       0.05890    1.05180    0.25726   1.00
C4       0.02083    0.74940    0.24950   1.00
C4       -0.02083   0.75060    0.25050   1.00
C3       0.04154    0.73790    0.21565   1.00
C3       -0.04321   0.76394    0.21847   1.00
C3       0.04357    0.76062    0.28216   1.00
C3       -0.04187   0.73744    0.28352   1.00
C2       0.10513    0.74890    0.24715   1.00
C2       -0.10514   0.75107    0.25253   1.00
C3       0.08285    0.73763    0.21459   1.00
C3       -0.08449   0.76420    0.21957   1.00
C3       0.08486    0.76033    0.28093   1.00
C3a      -0.08328   0.73765    0.28474   1.00
H1       0.02575    0.72868    0.18989   1.00
H1       -0.02875   0.77471    0.19254   1.00
H1       0.09760    0.72856    0.18818   1.00
H1       -0.10056   0.77481    0.19452   1.00
H1       0.10118    0.76931    0.30644   1.00
C5       -0.10380   0.72301    0.32072   1.00
H1       -0.02622   0.72661    0.30870   1.00
H1       0.02941    0.77046    0.30864   1.00
H2       -0.13599   0.72563    0.31765   1.00
H2       -0.09705   0.69150    0.32438   1.00
N1       -0.09125   0.74497    0.35511   1.00
C6       -0.09644   0.78345    0.36114   1.00
C6       -0.07288   0.73043    0.38666   1.00
C6       -0.08102   0.79371    0.39686   1.00
C6       -0.06604   0.75999    0.41309   1.00
H3       -0.11049   0.80306    0.34071   1.00
H3       -0.06484   0.70011    0.39040   1.00
H3       -0.08076   0.82255    0.40966   1.00
H3       -0.05180   0.75726    0.44110   1.00
C4       0.47917    0.74940    0.25050   1.00
C4       0.52083    0.75060    0.24950   1.00
C3       0.45846    0.73790    0.28435   1.00
C3       0.54321    0.76394    0.28153   1.00
C3       0.45643    0.76062    0.21784   1.00
C3       0.54187    0.73744    0.21648   1.00
C2       0.39487    0.74890    0.25285   1.00
C2       0.60514    0.75107    0.24747   1.00
C3       0.41715    0.73763    0.28541   1.00
C3       0.58449    0.76420    0.28043   1.00
C3       0.41514    0.76033    0.21907   1.00
C3a      0.58328    0.73765    0.21526   1.00
H1       0.47425    0.72868    0.31011   1.00
H1       0.52875    0.77471    0.30746   1.00
H1       0.40240    0.72856    0.31182   1.00
H1       0.60056    0.77481    0.30548   1.00
H1       0.39882    0.76931    0.19356   1.00
C5       0.60380    0.72301    0.17928   1.00
H1       0.52622    0.72661    0.19130   1.00
H1       0.47059    0.77046    0.19136   1.00
H2       0.63599    0.72563    0.18235   1.00
H2       0.59705    0.69150    0.17562   1.00
N1       0.59125    0.74497    0.14489   1.00
C6       0.59644    0.78345    0.13886   1.00
C6       0.57288    0.73043    0.11334   1.00
C6       0.58102    0.79371    0.10314   1.00
C6       0.56604    0.75999    0.08691   1.00
H3       0.61049    0.80306    0.15929   1.00
H3       0.56484    0.70011    0.10960   1.00
H3       0.58076    0.82255    0.09034   1.00
H3       0.55180    0.75726    0.05890   1.00
C4       0.24950    0.52083    0.24940   1.00
C4       0.25050    0.47917    0.25060   1.00
C3       0.21565    0.54154    0.23790   1.00
C3       0.21847    0.45679    0.26394   1.00
C3       0.28216    0.54357    0.26062   1.00
C3       0.28352    0.45813    0.23744   1.00
C2       0.24715    0.60513    0.24890   1.00
C2       0.25253    0.39486    0.25107   1.00
C3       0.21459    0.58285    0.23763   1.00
C3       0.21957    0.41551    0.26420   1.00
C3       0.28093    0.58486    0.26033   1.00
C3a      0.28474    0.41672    0.23765   1.00
H1       0.18989    0.52575    0.22868   1.00
H1       0.19254    0.47125    0.27471   1.00
H1       0.18818    0.59760    0.22856   1.00
H1       0.19452    0.39944    0.27481   1.00
H1       0.30644    0.60118    0.26931   1.00
C5       0.32072    0.39620    0.22301   1.00
H1       0.30870    0.47378    0.22661   1.00
H1       0.30864    0.52941    0.27046   1.00
H2       0.31765    0.36401    0.22563   1.00
H2       0.32438    0.40295    0.19150   1.00
N1       0.35511    0.40875    0.24497   1.00
C6       0.36114    0.40356    0.28345   1.00
C6       0.38666    0.42712    0.23043   1.00
C6       0.39686    0.41898    0.29371   1.00
C6       0.41309    0.43396    0.25999   1.00
H3       0.34071    0.38951    0.30306   1.00
H3       0.39040    0.43516    0.20011   1.00
H3       0.40966    0.41924    0.32255   1.00
H3       0.44110    0.44820    0.25726   1.00
C4       0.24940    0.74950    0.02083   1.00
C4       0.25060    0.75050    -0.02083   1.00
C3       0.23790    0.71565    0.04154   1.00
C3       0.26394    0.71847    -0.04321   1.00
C3       0.26062    0.78216    0.04357   1.00
C3       0.23744    0.78352    -0.04187   1.00
C2       0.24890    0.74715    0.10513   1.00
C2       0.25107    0.75253    -0.10514   1.00
C3       0.23763    0.71459    0.08285   1.00
C3       0.26420    0.71957    -0.08449   1.00
C3       0.26033    0.78093    0.08486   1.00
C3a      0.23765    0.78474    -0.08328   1.00
H1       0.22868    0.68989    0.02575   1.00
H1       0.27471    0.69254    -0.02875   1.00
H1       0.22856    0.68818    0.09760   1.00
H1       0.27481    0.69452    -0.10056   1.00
H1       0.26931    0.80644    0.10118   1.00
C5       0.22301    0.82072    -0.10380   1.00
H1       0.22661    0.80870    -0.02622   1.00
H1       0.27046    0.80864    0.02941   1.00
H2       0.22563    0.81765    -0.13599   1.00
H2       0.19150    0.82438    -0.09705   1.00
N1       0.24497    0.85511    -0.09125   1.00
C6       0.28345    0.86114    -0.09644   1.00
C6       0.23043    0.88666    -0.07288   1.00
C6       0.29371    0.89686    -0.08102   1.00
C6       0.25999    0.91309    -0.06604   1.00
H3       0.30306    0.84071    -0.11049   1.00
H3       0.20011    0.89040    -0.06484   1.00
H3       0.32255    0.90966    -0.08076   1.00
H3       0.25726    0.94110    -0.05180   1.00
C4       0.74940    0.25050    0.47917   1.00
C4       0.75060    0.24950    0.52083   1.00
C3       0.73790    0.28435    0.45846   1.00
C3       0.76394    0.28153    0.54321   1.00
C3       0.76062    0.21784    0.45643   1.00
C3       0.73744    0.21648    0.54187   1.00
C2       0.74890    0.25285    0.39487   1.00
C2       0.75107    0.24747    0.60514   1.00
C3       0.73763    0.28541    0.41715   1.00
C3       0.76420    0.28043    0.58449   1.00
C3       0.76033    0.21907    0.41514   1.00
C3a      0.73765    0.21526    0.58328   1.00
H1       0.72868    0.31011    0.47425   1.00
H1       0.77471    0.30746    0.52875   1.00
H1       0.72856    0.31182    0.40240   1.00
H1       0.77481    0.30548    0.60056   1.00
H1       0.76931    0.19356    0.39882   1.00
C5       0.72301    0.17928    0.60380   1.00
H1       0.72661    0.19130    0.52622   1.00
H1       0.77046    0.19136    0.47059   1.00
H2       0.72563    0.18235    0.63599   1.00
H2       0.69150    0.17562    0.59705   1.00
N1       0.74497    0.14489    0.59125   1.00
C6       0.78345    0.13886    0.59644   1.00
C6       0.73043    0.11334    0.57288   1.00
C6       0.79371    0.10314    0.58102   1.00
C6       0.75999    0.08691    0.56604   1.00
H3       0.80306    0.15929    0.61049   1.00
H3       0.70011    0.10960    0.56484   1.00
H3       0.82255    0.09034    0.58076   1.00
H3       0.75726    0.05890    0.55180   1.00
C4       0.75050    0.47917    0.24940   1.00
C4       0.74950    0.52083    0.25060   1.00
C3       0.78435    0.45846    0.23790   1.00
C3       0.78153    0.54321    0.26394   1.00
C3       0.71784    0.45643    0.26062   1.00
C3       0.71648    0.54187    0.23744   1.00
C2       0.75285    0.39487    0.24890   1.00
C2       0.74747    0.60514    0.25107   1.00
C3       0.78541    0.41715    0.23763   1.00
C3       0.78043    0.58449    0.26420   1.00
C3       0.71907    0.41514    0.26033   1.00
C3a      0.71526    0.58328    0.23765   1.00
H1       0.81011    0.47425    0.22868   1.00
H1       0.80746    0.52875    0.27471   1.00
H1       0.81182    0.40240    0.22856   1.00
H1       0.80548    0.60056    0.27481   1.00
H1       0.69356    0.39882    0.26931   1.00
C5       0.67928    0.60380    0.22301   1.00
H1       0.69130    0.52622    0.22661   1.00
H1       0.69136    0.47059    0.27046   1.00
H2       0.68235    0.63599    0.22563   1.00
H2       0.67562    0.59705    0.19150   1.00
N1       0.64489    0.59125    0.24497   1.00
C6       0.63886    0.59644    0.28345   1.00
C6       0.61334    0.57288    0.23043   1.00
C6       0.60314    0.58102    0.29371   1.00
C6       0.58691    0.56604    0.25999   1.00
H3       0.65929    0.61049    0.30306   1.00
H3       0.60960    0.56484    0.20011   1.00
H3       0.59034    0.58076    0.32255   1.00
H3       0.55890    0.55180    0.25726   1.00
C4       0.52083    0.24940    0.24950   1.00
C4       0.47917    0.25060    0.25050   1.00
C3       0.54154    0.23790    0.21565   1.00
C3       0.45679    0.26394    0.21847   1.00
C3       0.54357    0.26062    0.28216   1.00
C3       0.45813    0.23744    0.28352   1.00
C2       0.60513    0.24890    0.24715   1.00
C2       0.39486    0.25107    0.25253   1.00
C3       0.58285    0.23763    0.21459   1.00
C3       0.41551    0.26420    0.21957   1.00
C3       0.58486    0.26033    0.28093   1.00
C3a      0.41672    0.23765    0.28474   1.00
H1       0.52575    0.22868    0.18989   1.00
H1       0.47125    0.27471    0.19254   1.00
H1       0.59760    0.22856    0.18818   1.00
H1       0.39944    0.27481    0.19452   1.00
H1       0.60118    0.26931    0.30644   1.00
C5       0.39620    0.22301    0.32072   1.00
H1       0.47378    0.22661    0.30870   1.00
H1       0.52941    0.27046    0.30864   1.00
H2       0.36401    0.22563    0.31765   1.00
H2       0.40295    0.19150    0.32438   1.00
N1       0.40875    0.24497    0.35511   1.00
C6       0.40356    0.28345    0.36114   1.00
C6       0.42712    0.23043    0.38666   1.00
C6       0.41898    0.29371    0.39686   1.00
C6       0.43396    0.25999    0.41309   1.00
H3       0.38951    0.30306    0.34071   1.00
H3       0.43516    0.20011    0.39040   1.00
H3       0.41924    0.32255    0.40966   1.00
H3       0.44820    0.25726    0.44110   1.00
C4       0.97917    0.24940    0.25050   1.00
C4       1.02083    0.25060    0.24950   1.00
C3       0.95846    0.23790    0.28435   1.00
C3       1.04321    0.26394    0.28153   1.00
C3       0.95643    0.26062    0.21784   1.00
C3       1.04187    0.23744    0.21648   1.00
C2       0.89487    0.24890    0.25285   1.00
C2       1.10514    0.25107    0.24747   1.00
C3       0.91715    0.23763    0.28541   1.00
C3       1.08449    0.26420    0.28043   1.00
C3       0.91514    0.26033    0.21907   1.00
C3a      1.08328    0.23765    0.21526   1.00
H1       0.97425    0.22868    0.31011   1.00
H1       1.02875    0.27471    0.30746   1.00
H1       0.90240    0.22856    0.31182   1.00
H1       1.10056    0.27481    0.30548   1.00
H1       0.89882    0.26931    0.19356   1.00
C5       1.10380    0.22301    0.17928   1.00
H1       1.02622    0.22661    0.19130   1.00
H1       0.97059    0.27046    0.19136   1.00
H2       1.13599    0.22563    0.18235   1.00
H2       1.09705    0.19150    0.17562   1.00
N1       1.09125    0.24497    0.14489   1.00
C6       1.09644    0.28345    0.13886   1.00
C6       1.07288    0.23043    0.11334   1.00
C6       1.08102    0.29371    0.10314   1.00
C6       1.06604    0.25999    0.08691   1.00
H3       1.11049    0.30306    0.15929   1.00
H3       1.06484    0.20011    0.10960   1.00
H3       1.08076    0.32255    0.09034   1.00
H3       1.05180    0.25726    0.05890   1.00
C4       0.74950    0.02083    0.24940   1.00
C4       0.75050    -0.02083   0.25060   1.00
C3       0.71565    0.04154    0.23790   1.00
C3       0.71847    -0.04321   0.26394   1.00
C3       0.78216    0.04357    0.26062   1.00
C3       0.78352    -0.04187   0.23744   1.00
C2       0.74715    0.10513    0.24890   1.00
C2       0.75253    -0.10514   0.25107   1.00
C3       0.71459    0.08285    0.23763   1.00
C3       0.71957    -0.08449   0.26420   1.00
C3       0.78093    0.08486    0.26033   1.00
C3a      0.78474    -0.08328   0.23765   1.00
H1       0.68989    0.02575    0.22868   1.00
H1       0.69254    -0.02875   0.27471   1.00
H1       0.68818    0.09760    0.22856   1.00
H1       0.69452    -0.10056   0.27481   1.00
H1       0.80644    0.10118    0.26931   1.00
C5       0.82072    -0.10380   0.22301   1.00
H1       0.80870    -0.02622   0.22661   1.00
H1       0.80864    0.02941    0.27046   1.00
H2       0.81765    -0.13599   0.22563   1.00
H2       0.82438    -0.09705   0.19150   1.00
N1       0.85511    -0.09125   0.24497   1.00
C6       0.86114    -0.09644   0.28345   1.00
C6       0.88666    -0.07288   0.23043   1.00
C6       0.89686    -0.08102   0.29371   1.00
C6       0.91309    -0.06604   0.25999   1.00
H3       0.84071    -0.11049   0.30306   1.00
H3       0.89040    -0.06484   0.20011   1.00
H3       0.90966    -0.08076   0.32255   1.00
H3       0.94110    -0.05180   0.25726   1.00
C4       0.74940    0.24950    0.02083   1.00
C4       0.75060    0.25050    -0.02083   1.00
C3       0.73790    0.21565    0.04154   1.00
C3       0.76394    0.21847    -0.04321   1.00
C3       0.76062    0.28216    0.04357   1.00
C3       0.73744    0.28352    -0.04187   1.00
C2       0.74890    0.24715    0.10513   1.00
C2       0.75107    0.25253    -0.10514   1.00
C3       0.73763    0.21459    0.08285   1.00
C3       0.76420    0.21957    -0.08449   1.00
C3       0.76033    0.28093    0.08486   1.00
C3a      0.73765    0.28474    -0.08328   1.00
H1       0.72868    0.18989    0.02575   1.00
H1       0.77471    0.19254    -0.02875   1.00
H1       0.72856    0.18818    0.09760   1.00
H1       0.77481    0.19452    -0.10056   1.00
H1       0.76931    0.30644    0.10118   1.00
C5       0.72301    0.32072    -0.10380   1.00
H1       0.72661    0.30870    -0.02622   1.00
H1       0.77046    0.30864    0.02941   1.00
H2       0.72563    0.31765    -0.13599   1.00
H2       0.69150    0.32438    -0.09705   1.00
N1       0.74497    0.35511    -0.09125   1.00
C6       0.78345    0.36114    -0.09644   1.00
C6       0.73043    0.38666    -0.07288   1.00
C6       0.79371    0.39686    -0.08102   1.00
C6       0.75999    0.41309    -0.06604   1.00
H3       0.80306    0.34071    -0.11049   1.00
H3       0.70011    0.39040    -0.06484   1.00
H3       0.82255    0.40966    -0.08076   1.00
H3       0.75726    0.44110    -0.05180   1.00
C4       0.91440    0.91550    1.14417   1.00
C4       0.91560    0.91450    1.18583   1.00
C3       0.90290    0.94935    1.12346   1.00
C3       0.92894    0.94653    1.20821   1.00
C3       0.92562    0.88284    1.12143   1.00
C3       0.90244    0.88148    1.20687   1.00
C2       0.91390    0.91785    1.05987   1.00
C2       0.91607    0.91247    1.27014   1.00
C3       0.90263    0.95041    1.08215   1.00
C3       0.92920    0.94543    1.24949   1.00
C3       0.92533    0.88407    1.08014   1.00
C3a      0.90265    0.88026    1.24828   1.00
H1       0.89368    0.97511    1.13925   1.00
H1       0.93971    0.97246    1.19375   1.00
H1       0.89356    0.97682    1.06740   1.00
H1       0.93981    0.97048    1.26556   1.00
H1       0.93431    0.85856    1.06382   1.00
C5       0.88801    0.84428    1.26880   1.00
H1       0.89161    0.85630    1.19122   1.00
H1       0.93546    0.85636    1.13559   1.00
H2       0.89063    0.84735    1.30099   1.00
H2       0.85650    0.84062    1.26205   1.00
N1       0.90997    0.80989    1.25625   1.00
C6       0.94845    0.80386    1.26144   1.00
C6       0.89543    0.77834    1.23788   1.00
C6       0.95871    0.76814    1.24602   1.00
C6       0.92499    0.75191    1.23104   1.00
H3       0.96806    0.82429    1.27549   1.00
H3       0.86511    0.77460    1.22984   1.00
H3       0.98755    0.75534    1.24576   1.00
H3       0.92226    0.72390    1.21680   1.00
C4       0.91550    1.14417    0.91440   1.00
C4       0.91450    1.18583    0.91560   1.00
C3       0.94935    1.12346    0.90290   1.00
C3       0.94653    1.20821    0.92894   1.00
C3       0.88284    1.12143    0.92562   1.00
C3       0.88148    1.20687    0.90244   1.00
C2       0.91785    1.05987    0.91390   1.00
C2       0.91247    1.27014    0.91607   1.00
C3       0.95041    1.08215    0.90263   1.00
C3       0.94543    1.24949    0.92920   1.00
C3       0.88407    1.08014    0.92533   1.00
C3a      0.88026    1.24828    0.90265   1.00
H1       0.97511    1.13925    0.89368   1.00
H1       0.97246    1.19375    0.93971   1.00
H1       0.97682    1.06740    0.89356   1.00
H1       0.97048    1.26556    0.93981   1.00
H1       0.85856    1.06382    0.93431   1.00
C5       0.84428    1.26880    0.88801   1.00
H1       0.85630    1.19122    0.89161   1.00
H1       0.85636    1.13559    0.93546   1.00
H2       0.84735    1.30099    0.89063   1.00
H2       0.84062    1.26205    0.85650   1.00
N1       0.80989    1.25625    0.90997   1.00
C6       0.80386    1.26144    0.94845   1.00
C6       0.77834    1.23788    0.89543   1.00
C6       0.76814    1.24602    0.95871   1.00
C6       0.75191    1.23104    0.92499   1.00
H3       0.82429    1.27549    0.96806   1.00
H3       0.77460    1.22984    0.86511   1.00
H3       0.75534    1.24576    0.98755   1.00
H3       0.72390    1.21680    0.92226   1.00
C4       0.68583    0.91440    0.91450   1.00
C4       0.64417    0.91560    0.91550   1.00
C3       0.70654    0.90290    0.88065   1.00
C3       0.62179    0.92894    0.88347   1.00
C3       0.70857    0.92562    0.94716   1.00
C3       0.62313    0.90244    0.94852   1.00
C2       0.77013    0.91390    0.91215   1.00
C2       0.55986    0.91607    0.91753   1.00
C3       0.74785    0.90263    0.87959   1.00
C3       0.58051    0.92920    0.88457   1.00
C3       0.74986    0.92533    0.94593   1.00
C3a      0.58172    0.90265    0.94974   1.00
H1       0.69075    0.89368    0.85489   1.00
H1       0.63625    0.93971    0.85754   1.00
H1       0.76260    0.89356    0.85318   1.00
H1       0.56444    0.93981    0.85952   1.00
H1       0.76618    0.93431    0.97144   1.00
C5       0.56120    0.88801    0.98572   1.00
H1       0.63878    0.89161    0.97370   1.00
H1       0.69441    0.93546    0.97364   1.00
H2       0.52901    0.89063    0.98265   1.00
H2       0.56795    0.85650    0.98938   1.00
N1       0.57375    0.90997    1.02011   1.00
C6       0.56856    0.94845    1.02614   1.00
C6       0.59212    0.89543    1.05166   1.00
C6       0.58398    0.95871    1.06186   1.00
C6       0.59896    0.92499    1.07809   1.00
H3       0.55451    0.96806    1.00571   1.00
H3       0.60016    0.86511    1.05540   1.00
H3       0.58424    0.98755    1.07466   1.00
H3       0.61320    0.92226    1.10610   1.00
C4       1.14417    0.91440    0.91550   1.00
C4       1.18583    0.91560    0.91450   1.00
C3       1.12346    0.90290    0.94935   1.00
C3       1.20821    0.92894    0.94653   1.00
C3       1.12143    0.92562    0.88284   1.00
C3       1.20687    0.90244    0.88148   1.00
C2       1.05987    0.91390    0.91785   1.00
C2       1.27014    0.91607    0.91247   1.00
C3       1.08215    0.90263    0.95041   1.00
C3       1.24949    0.92920    0.94543   1.00
C3       1.08014    0.92533    0.88407   1.00
C3a      1.24828    0.90265    0.88026   1.00
H1       1.13925    0.89368    0.97511   1.00
H1       1.19375    0.93971    0.97246   1.00
H1       1.06740    0.89356    0.97682   1.00
H1       1.26556    0.93981    0.97048   1.00
H1       1.06382    0.93431    0.85856   1.00
C5       1.26880    0.88801    0.84428   1.00
H1       1.19122    0.89161    0.85630   1.00
H1       1.13559    0.93546    0.85636   1.00
H2       1.30099    0.89063    0.84735   1.00
H2       1.26205    0.85650    0.84062   1.00
N1       1.25625    0.90997    0.80989   1.00
C6       1.26144    0.94845    0.80386   1.00
C6       1.23788    0.89543    0.77834   1.00
C6       1.24602    0.95871    0.76814   1.00
C6       1.23104    0.92499    0.75191   1.00
H3       1.27549    0.96806    0.82429   1.00
H3       1.22984    0.86511    0.77460   1.00
H3       1.24576    0.98755    0.75534   1.00
H3       1.21680    0.92226    0.72390   1.00
C4       0.91450    0.68583    0.91440   1.00
C4       0.91550    0.64417    0.91560   1.00
C3       0.88065    0.70654    0.90290   1.00
C3       0.88347    0.62179    0.92894   1.00
C3       0.94716    0.70857    0.92562   1.00
C3       0.94852    0.62313    0.90244   1.00
C2       0.91215    0.77013    0.91390   1.00
C2       0.91753    0.55986    0.91607   1.00
C3       0.87959    0.74785    0.90263   1.00
C3       0.88457    0.58051    0.92920   1.00
C3       0.94593    0.74986    0.92533   1.00
C3a      0.94974    0.58172    0.90265   1.00
H1       0.85489    0.69075    0.89368   1.00
H1       0.85754    0.63625    0.93971   1.00
H1       0.85318    0.76260    0.89356   1.00
H1       0.85952    0.56444    0.93981   1.00
H1       0.97144    0.76618    0.93431   1.00
C5       0.98572    0.56120    0.88801   1.00
H1       0.97370    0.63878    0.89161   1.00
H1       0.97364    0.69441    0.93546   1.00
H2       0.98265    0.52901    0.89063   1.00
H2       0.98938    0.56795    0.85650   1.00
N1       1.02011    0.57375    0.90997   1.00
C6       1.02614    0.56856    0.94845   1.00
C6       1.05166    0.59212    0.89543   1.00
C6       1.06186    0.58398    0.95871   1.00
C6       1.07809    0.59896    0.92499   1.00
H3       1.00571    0.55451    0.96806   1.00
H3       1.05540    0.60016    0.86511   1.00
H3       1.07466    0.58424    0.98755   1.00
H3       1.10610    0.61320    0.92226   1.00
C4       0.91440    0.91450    0.68583   1.00
C4       0.91560    0.91550    0.64417   1.00
C3       0.90290    0.88065    0.70654   1.00
C3       0.92894    0.88347    0.62179   1.00
C3       0.92562    0.94716    0.70857   1.00
C3       0.90244    0.94852    0.62313   1.00
C2       0.91390    0.91215    0.77013   1.00
C2       0.91607    0.91753    0.55986   1.00
C3       0.90263    0.87959    0.74785   1.00
C3       0.92920    0.88457    0.58051   1.00
C3       0.92533    0.94593    0.74986   1.00
C3a      0.90265    0.94974    0.58172   1.00
H1       0.89368    0.85489    0.69075   1.00
H1       0.93971    0.85754    0.63625   1.00
H1       0.89356    0.85318    0.76260   1.00
H1       0.93981    0.85952    0.56444   1.00
H1       0.93431    0.97144    0.76618   1.00
C5       0.88801    0.98572    0.56120   1.00
H1       0.89161    0.97370    0.63878   1.00
H1       0.93546    0.97364    0.69441   1.00
H2       0.89063    0.98265    0.52901   1.00
H2       0.85650    0.98938    0.56795   1.00
N1       0.90997    1.02011    0.57375   1.00
C6       0.94845    1.02614    0.56856   1.00
C6       0.89543    1.05166    0.59212   1.00
C6       0.95871    1.06186    0.58398   1.00
C6       0.92499    1.07809    0.59896   1.00
H3       0.96806    1.00571    0.55451   1.00
H3       0.86511    1.05540    0.60016   1.00
H3       0.98755    1.07466    0.58424   1.00
H3       0.92226    1.10610    0.61320   1.00
C4       0.41440    0.41550    1.14417   1.00
C4       0.41560    0.41450    1.18583   1.00
C3       0.40290    0.44935    1.12346   1.00
C3       0.42894    0.44653    1.20821   1.00
C3       0.42562    0.38284    1.12143   1.00
C3       0.40244    0.38148    1.20687   1.00
C2       0.41390    0.41785    1.05987   1.00
C2       0.41607    0.41247    1.27014   1.00
C3       0.40263    0.45041    1.08215   1.00
C3       0.42920    0.44543    1.24949   1.00
C3       0.42533    0.38407    1.08014   1.00
C3a      0.40265    0.38026    1.24828   1.00
H1       0.39368    0.47511    1.13925   1.00
H1       0.43971    0.47246    1.19375   1.00
H1       0.39356    0.47682    1.06740   1.00
H1       0.43981    0.47048    1.26556   1.00
H1       0.43431    0.35856    1.06382   1.00
C5       0.38801    0.34428    1.26880   1.00
H1       0.39161    0.35630    1.19122   1.00
H1       0.43546    0.35636    1.13559   1.00
H2       0.39063    0.34735    1.30099   1.00
H2       0.35650    0.34062    1.26205   1.00
N1       0.40997    0.30989    1.25625   1.00
C6       0.44845    0.30386    1.26144   1.00
C6       0.39543    0.27834    1.23788   1.00
C6       0.45871    0.26814    1.24602   1.00
C6       0.42499    0.25191    1.23104   1.00
H3       0.46806    0.32429    1.27549   1.00
H3       0.36511    0.27460    1.22984   1.00
H3       0.48755    0.25534    1.24576   1.00
H3       0.42226    0.22390    1.21680   1.00
C4       0.41550    0.64417    0.91440   1.00
C4       0.41450    0.68583    0.91560   1.00
C3       0.44935    0.62346    0.90290   1.00
C3       0.44653    0.70821    0.92894   1.00
C3       0.38284    0.62143    0.92562   1.00
C3       0.38148    0.70687    0.90244   1.00
C2       0.41785    0.55987    0.91390   1.00
C2       0.41247    0.77014    0.91607   1.00
C3       0.45041    0.58215    0.90263   1.00
C3       0.44543    0.74949    0.92920   1.00
C3       0.38407    0.58014    0.92533   1.00
C3a      0.38026    0.74828    0.90265   1.00
H1       0.47511    0.63925    0.89368   1.00
H1       0.47246    0.69375    0.93971   1.00
H1       0.47682    0.56740    0.89356   1.00
H1       0.47048    0.76556    0.93981   1.00
H1       0.35856    0.56382    0.93431   1.00
C5       0.34428    0.76880    0.88801   1.00
H1       0.35630    0.69122    0.89161   1.00
H1       0.35636    0.63559    0.93546   1.00
H2       0.34735    0.80099    0.89063   1.00
H2       0.34062    0.76205    0.85650   1.00
N1       0.30989    0.75625    0.90997   1.00
C6       0.30386    0.76144    0.94845   1.00
C6       0.27834    0.73788    0.89543   1.00
C6       0.26814    0.74602    0.95871   1.00
C6       0.25191    0.73104    0.92499   1.00
H3       0.32429    0.77549    0.96806   1.00
H3       0.27460    0.72984    0.86511   1.00
H3       0.25534    0.74576    0.98755   1.00
H3       0.22390    0.71680    0.92226   1.00
C4       0.18583    0.41440    0.91450   1.00
C4       0.14417    0.41560    0.91550   1.00
C3       0.20654    0.40290    0.88065   1.00
C3       0.12179    0.42894    0.88347   1.00
C3       0.20857    0.42562    0.94716   1.00
C3       0.12313    0.40244    0.94852   1.00
C2       0.27013    0.41390    0.91215   1.00
C2       0.05986    0.41607    0.91753   1.00
C3       0.24785    0.40263    0.87959   1.00
C3       0.08051    0.42920    0.88457   1.00
C3       0.24986    0.42533    0.94593   1.00
C3a      0.08172    0.40265    0.94974   1.00
H1       0.19075    0.39368    0.85489   1.00
H1       0.13625    0.43971    0.85754   1.00
H1       0.26260    0.39356    0.85318   1.00
H1       0.06444    0.43981    0.85952   1.00
H1       0.26618    0.43431    0.97144   1.00
C5       0.06120    0.38801    0.98572   1.00
H1       0.13878    0.39161    0.97370   1.00
H1       0.19441    0.43546    0.97364   1.00
H2       0.02901    0.39063    0.98265   1.00
H2       0.06795    0.35650    0.98938   1.00
N1       0.07375    0.40997    1.02011   1.00
C6       0.06856    0.44845    1.02614   1.00
C6       0.09212    0.39543    1.05166   1.00
C6       0.08398    0.45871    1.06186   1.00
C6       0.09896    0.42499    1.07809   1.00
H3       0.05451    0.46806    1.00571   1.00
H3       0.10016    0.36511    1.05540   1.00
H3       0.08424    0.48755    1.07466   1.00
H3       0.11320    0.42226    1.10610   1.00
C4       0.64417    0.41440    0.91550   1.00
C4       0.68583    0.41560    0.91450   1.00
C3       0.62346    0.40290    0.94935   1.00
C3       0.70821    0.42894    0.94653   1.00
C3       0.62143    0.42562    0.88284   1.00
C3       0.70687    0.40244    0.88148   1.00
C2       0.55987    0.41390    0.91785   1.00
C2       0.77014    0.41607    0.91247   1.00
C3       0.58215    0.40263    0.95041   1.00
C3       0.74949    0.42920    0.94543   1.00
C3       0.58014    0.42533    0.88407   1.00
C3a      0.74828    0.40265    0.88026   1.00
H1       0.63925    0.39368    0.97511   1.00
H1       0.69375    0.43971    0.97246   1.00
H1       0.56740    0.39356    0.97682   1.00
H1       0.76556    0.43981    0.97048   1.00
H1       0.56382    0.43431    0.85856   1.00
C5       0.76880    0.38801    0.84428   1.00
H1       0.69122    0.39161    0.85630   1.00
H1       0.63559    0.43546    0.85636   1.00
H2       0.80099    0.39063    0.84735   1.00
H2       0.76205    0.35650    0.84062   1.00
N1       0.75625    0.40997    0.80989   1.00
C6       0.76144    0.44845    0.80386   1.00
C6       0.73788    0.39543    0.77834   1.00
C6       0.74602    0.45871    0.76814   1.00
C6       0.73104    0.42499    0.75191   1.00
H3       0.77549    0.46806    0.82429   1.00
H3       0.72984    0.36511    0.77460   1.00
H3       0.74576    0.48755    0.75534   1.00
H3       0.71680    0.42226    0.72390   1.00
C4       0.41450    0.18583    0.91440   1.00
C4       0.41550    0.14417    0.91560   1.00
C3       0.38065    0.20654    0.90290   1.00
C3       0.38347    0.12179    0.92894   1.00
C3       0.44716    0.20857    0.92562   1.00
C3       0.44852    0.12313    0.90244   1.00
C2       0.41215    0.27013    0.91390   1.00
C2       0.41753    0.05986    0.91607   1.00
C3       0.37959    0.24785    0.90263   1.00
C3       0.38457    0.08051    0.92920   1.00
C3       0.44593    0.24986    0.92533   1.00
C3a      0.44974    0.08172    0.90265   1.00
H1       0.35489    0.19075    0.89368   1.00
H1       0.35754    0.13625    0.93971   1.00
H1       0.35318    0.26260    0.89356   1.00
H1       0.35952    0.06444    0.93981   1.00
H1       0.47144    0.26618    0.93431   1.00
C5       0.48572    0.06120    0.88801   1.00
H1       0.47370    0.13878    0.89161   1.00
H1       0.47364    0.19441    0.93546   1.00
H2       0.48265    0.02901    0.89063   1.00
H2       0.48938    0.06795    0.85650   1.00
N1       0.52011    0.07375    0.90997   1.00
C6       0.52614    0.06856    0.94845   1.00
C6       0.55166    0.09212    0.89543   1.00
C6       0.56186    0.08398    0.95871   1.00
C6       0.57809    0.09896    0.92499   1.00
H3       0.50571    0.05451    0.96806   1.00
H3       0.55540    0.10016    0.86511   1.00
H3       0.57466    0.08424    0.98755   1.00
H3       0.60610    0.11320    0.92226   1.00
C4       0.41440    0.41450    0.68583   1.00
C4       0.41560    0.41550    0.64417   1.00
C3       0.40290    0.38065    0.70654   1.00
C3       0.42894    0.38347    0.62179   1.00
C3       0.42562    0.44716    0.70857   1.00
C3       0.40244    0.44852    0.62313   1.00
C2       0.41390    0.41215    0.77013   1.00
C2       0.41607    0.41753    0.55986   1.00
C3       0.40263    0.37959    0.74785   1.00
C3       0.42920    0.38457    0.58051   1.00
C3       0.42533    0.44593    0.74986   1.00
C3a      0.40265    0.44974    0.58172   1.00
H1       0.39368    0.35489    0.69075   1.00
H1       0.43971    0.35754    0.63625   1.00
H1       0.39356    0.35318    0.76260   1.00
H1       0.43981    0.35952    0.56444   1.00
H1       0.43431    0.47144    0.76618   1.00
C5       0.38801    0.48572    0.56120   1.00
H1       0.39161    0.47370    0.63878   1.00
H1       0.43546    0.47364    0.69441   1.00
H2       0.39063    0.48265    0.52901   1.00
H2       0.35650    0.48938    0.56795   1.00
N1       0.40997    0.52011    0.57375   1.00
C6       0.44845    0.52614    0.56856   1.00
C6       0.39543    0.55166    0.59212   1.00
C6       0.45871    0.56186    0.58398   1.00
C6       0.42499    0.57809    0.59896   1.00
H3       0.46806    0.50571    0.55451   1.00
H3       0.36511    0.55540    0.60016   1.00
H3       0.48755    0.57466    0.58424   1.00
H3       0.42226    0.60610    0.61320   1.00
C4       0.41440    0.91550    0.64417   1.00
C4       0.41560    0.91450    0.68583   1.00
C3       0.40290    0.94935    0.62346   1.00
C3       0.42894    0.94653    0.70821   1.00
C3       0.42562    0.88284    0.62143   1.00
C3       0.40244    0.88148    0.70687   1.00
C2       0.41390    0.91785    0.55987   1.00
C2       0.41607    0.91247    0.77014   1.00
C3       0.40263    0.95041    0.58215   1.00
C3       0.42920    0.94543    0.74949   1.00
C3       0.42533    0.88407    0.58014   1.00
C3a      0.40265    0.88026    0.74828   1.00
H1       0.39368    0.97511    0.63925   1.00
H1       0.43971    0.97246    0.69375   1.00
H1       0.39356    0.97682    0.56740   1.00
H1       0.43981    0.97048    0.76556   1.00
H1       0.43431    0.85856    0.56382   1.00
C5       0.38801    0.84428    0.76880   1.00
H1       0.39161    0.85630    0.69122   1.00
H1       0.43546    0.85636    0.63559   1.00
H2       0.39063    0.84735    0.80099   1.00
H2       0.35650    0.84062    0.76205   1.00
N1       0.40997    0.80989    0.75625   1.00
C6       0.44845    0.80386    0.76144   1.00
C6       0.39543    0.77834    0.73788   1.00
C6       0.45871    0.76814    0.74602   1.00
C6       0.42499    0.75191    0.73104   1.00
H3       0.46806    0.82429    0.77549   1.00
H3       0.36511    0.77460    0.72984   1.00
H3       0.48755    0.75534    0.74576   1.00
H3       0.42226    0.72390    0.71680   1.00
C4       0.41550    1.14417    0.41440   1.00
C4       0.41450    1.18583    0.41560   1.00
C3       0.44935    1.12346    0.40290   1.00
C3       0.44653    1.20821    0.42894   1.00
C3       0.38284    1.12143    0.42562   1.00
C3       0.38148    1.20687    0.40244   1.00
C2       0.41785    1.05987    0.41390   1.00
C2       0.41247    1.27014    0.41607   1.00
C3       0.45041    1.08215    0.40263   1.00
C3       0.44543    1.24949    0.42920   1.00
C3       0.38407    1.08014    0.42533   1.00
C3a      0.38026    1.24828    0.40265   1.00
H1       0.47511    1.13925    0.39368   1.00
H1       0.47246    1.19375    0.43971   1.00
H1       0.47682    1.06740    0.39356   1.00
H1       0.47048    1.26556    0.43981   1.00
H1       0.35856    1.06382    0.43431   1.00
C5       0.34428    1.26880    0.38801   1.00
H1       0.35630    1.19122    0.39161   1.00
H1       0.35636    1.13559    0.43546   1.00
H2       0.34735    1.30099    0.39063   1.00
H2       0.34062    1.26205    0.35650   1.00
N1       0.30989    1.25625    0.40997   1.00
C6       0.30386    1.26144    0.44845   1.00
C6       0.27834    1.23788    0.39543   1.00
C6       0.26814    1.24602    0.45871   1.00
C6       0.25191    1.23104    0.42499   1.00
H3       0.32429    1.27549    0.46806   1.00
H3       0.27460    1.22984    0.36511   1.00
H3       0.25534    1.24576    0.48755   1.00
H3       0.22390    1.21680    0.42226   1.00
C4       0.18583    0.91440    0.41450   1.00
C4       0.14417    0.91560    0.41550   1.00
C3       0.20654    0.90290    0.38065   1.00
C3       0.12179    0.92894    0.38347   1.00
C3       0.20857    0.92562    0.44716   1.00
C3       0.12313    0.90244    0.44852   1.00
C2       0.27013    0.91390    0.41215   1.00
C2       0.05986    0.91607    0.41753   1.00
C3       0.24785    0.90263    0.37959   1.00
C3       0.08051    0.92920    0.38457   1.00
C3       0.24986    0.92533    0.44593   1.00
C3a      0.08172    0.90265    0.44974   1.00
H1       0.19075    0.89368    0.35489   1.00
H1       0.13625    0.93971    0.35754   1.00
H1       0.26260    0.89356    0.35318   1.00
H1       0.06444    0.93981    0.35952   1.00
H1       0.26618    0.93431    0.47144   1.00
C5       0.06120    0.88801    0.48572   1.00
H1       0.13878    0.89161    0.47370   1.00
H1       0.19441    0.93546    0.47364   1.00
H2       0.02901    0.89063    0.48265   1.00
H2       0.06795    0.85650    0.48938   1.00
N1       0.07375    0.90997    0.52011   1.00
C6       0.06856    0.94845    0.52614   1.00
C6       0.09212    0.89543    0.55166   1.00
C6       0.08398    0.95871    0.56186   1.00
C6       0.09896    0.92499    0.57809   1.00
H3       0.05451    0.96806    0.50571   1.00
H3       0.10016    0.86511    0.55540   1.00
H3       0.08424    0.98755    0.57466   1.00
H3       0.11320    0.92226    0.60610   1.00
C4       0.64417    0.91440    0.41550   1.00
C4       0.68583    0.91560    0.41450   1.00
C3       0.62346    0.90290    0.44935   1.00
C3       0.70821    0.92894    0.44653   1.00
C3       0.62143    0.92562    0.38284   1.00
C3       0.70687    0.90244    0.38148   1.00
C2       0.55987    0.91390    0.41785   1.00
C2       0.77014    0.91607    0.41247   1.00
C3       0.58215    0.90263    0.45041   1.00
C3       0.74949    0.92920    0.44543   1.00
C3       0.58014    0.92533    0.38407   1.00
C3a      0.74828    0.90265    0.38026   1.00
H1       0.63925    0.89368    0.47511   1.00
H1       0.69375    0.93971    0.47246   1.00
H1       0.56740    0.89356    0.47682   1.00
H1       0.76556    0.93981    0.47048   1.00
H1       0.56382    0.93431    0.35856   1.00
C5       0.76880    0.88801    0.34428   1.00
H1       0.69122    0.89161    0.35630   1.00
H1       0.63559    0.93546    0.35636   1.00
H2       0.80099    0.89063    0.34735   1.00
H2       0.76205    0.85650    0.34062   1.00
N1       0.75625    0.90997    0.30989   1.00
C6       0.76144    0.94845    0.30386   1.00
C6       0.73788    0.89543    0.27834   1.00
C6       0.74602    0.95871    0.26814   1.00
C6       0.73104    0.92499    0.25191   1.00
H3       0.77549    0.96806    0.32429   1.00
H3       0.72984    0.86511    0.27460   1.00
H3       0.74576    0.98755    0.25534   1.00
H3       0.71680    0.92226    0.22390   1.00
C4       0.41450    0.68583    0.41440   1.00
C4       0.41550    0.64417    0.41560   1.00
C3       0.38065    0.70654    0.40290   1.00
C3       0.38347    0.62179    0.42894   1.00
C3       0.44716    0.70857    0.42562   1.00
C3       0.44852    0.62313    0.40244   1.00
C2       0.41215    0.77013    0.41390   1.00
C2       0.41753    0.55986    0.41607   1.00
C3       0.37959    0.74785    0.40263   1.00
C3       0.38457    0.58051    0.42920   1.00
C3       0.44593    0.74986    0.42533   1.00
C3a      0.44974    0.58172    0.40265   1.00
H1       0.35489    0.69075    0.39368   1.00
H1       0.35754    0.63625    0.43971   1.00
H1       0.35318    0.76260    0.39356   1.00
H1       0.35952    0.56444    0.43981   1.00
H1       0.47144    0.76618    0.43431   1.00
C5       0.48572    0.56120    0.38801   1.00
H1       0.47370    0.63878    0.39161   1.00
H1       0.47364    0.69441    0.43546   1.00
H2       0.48265    0.52901    0.39063   1.00
H2       0.48938    0.56795    0.35650   1.00
N1       0.52011    0.57375    0.40997   1.00
C6       0.52614    0.56856    0.44845   1.00
C6       0.55166    0.59212    0.39543   1.00
C6       0.56186    0.58398    0.45871   1.00
C6       0.57809    0.59896    0.42499   1.00
H3       0.50571    0.55451    0.46806   1.00
H3       0.55540    0.60016    0.36511   1.00
H3       0.57466    0.58424    0.48755   1.00
H3       0.60610    0.61320    0.42226   1.00
C4       0.41440    0.91450    0.18583   1.00
C4       0.41560    0.91550    0.14417   1.00
C3       0.40290    0.88065    0.20654   1.00
C3       0.42894    0.88347    0.12179   1.00
C3       0.42562    0.94716    0.20857   1.00
C3       0.40244    0.94852    0.12313   1.00
C2       0.41390    0.91215    0.27013   1.00
C2       0.41607    0.91753    0.05986   1.00
C3       0.40263    0.87959    0.24785   1.00
C3       0.42920    0.88457    0.08051   1.00
C3       0.42533    0.94593    0.24986   1.00
C3a      0.40265    0.94974    0.08172   1.00
H1       0.39368    0.85489    0.19075   1.00
H1       0.43971    0.85754    0.13625   1.00
H1       0.39356    0.85318    0.26260   1.00
H1       0.43981    0.85952    0.06444   1.00
H1       0.43431    0.97144    0.26618   1.00
C5       0.38801    0.98572    0.06120   1.00
H1       0.39161    0.97370    0.13878   1.00
H1       0.43546    0.97364    0.19441   1.00
H2       0.39063    0.98265    0.02901   1.00
H2       0.35650    0.98938    0.06795   1.00
N1       0.40997    1.02011    0.07375   1.00
C6       0.44845    1.02614    0.06856   1.00
C6       0.39543    1.05166    0.09212   1.00
C6       0.45871    1.06186    0.08398   1.00
C6       0.42499    1.07809    0.09896   1.00
H3       0.46806    1.00571    0.05451   1.00
H3       0.36511    1.05540    0.10016   1.00
H3       0.48755    1.07466    0.08424   1.00
H3       0.42226    1.10610    0.11320   1.00
C4       0.91440    0.41550    0.64417   1.00
C4       0.91560    0.41450    0.68583   1.00
C3       0.90290    0.44935    0.62346   1.00
C3       0.92894    0.44653    0.70821   1.00
C3       0.92562    0.38284    0.62143   1.00
C3       0.90244    0.38148    0.70687   1.00
C2       0.91390    0.41785    0.55987   1.00
C2       0.91607    0.41247    0.77014   1.00
C3       0.90263    0.45041    0.58215   1.00
C3       0.92920    0.44543    0.74949   1.00
C3       0.92533    0.38407    0.58014   1.00
C3a      0.90265    0.38026    0.74828   1.00
H1       0.89368    0.47511    0.63925   1.00
H1       0.93971    0.47246    0.69375   1.00
H1       0.89356    0.47682    0.56740   1.00
H1       0.93981    0.47048    0.76556   1.00
H1       0.93431    0.35856    0.56382   1.00
C5       0.88801    0.34428    0.76880   1.00
H1       0.89161    0.35630    0.69122   1.00
H1       0.93546    0.35636    0.63559   1.00
H2       0.89063    0.34735    0.80099   1.00
H2       0.85650    0.34062    0.76205   1.00
N1       0.90997    0.30989    0.75625   1.00
C6       0.94845    0.30386    0.76144   1.00
C6       0.89543    0.27834    0.73788   1.00
C6       0.95871    0.26814    0.74602   1.00
C6       0.92499    0.25191    0.73104   1.00
H3       0.96806    0.32429    0.77549   1.00
H3       0.86511    0.27460    0.72984   1.00
H3       0.98755    0.25534    0.74576   1.00
H3       0.92226    0.22390    0.71680   1.00
C4       0.91550    0.64417    0.41440   1.00
C4       0.91450    0.68583    0.41560   1.00
C3       0.94935    0.62346    0.40290   1.00
C3       0.94653    0.70821    0.42894   1.00
C3       0.88284    0.62143    0.42562   1.00
C3       0.88148    0.70687    0.40244   1.00
C2       0.91785    0.55987    0.41390   1.00
C2       0.91247    0.77014    0.41607   1.00
C3       0.95041    0.58215    0.40263   1.00
C3       0.94543    0.74949    0.42920   1.00
C3       0.88407    0.58014    0.42533   1.00
C3a      0.88026    0.74828    0.40265   1.00
H1       0.97511    0.63925    0.39368   1.00
H1       0.97246    0.69375    0.43971   1.00
H1       0.97682    0.56740    0.39356   1.00
H1       0.97048    0.76556    0.43981   1.00
H1       0.85856    0.56382    0.43431   1.00
C5       0.84428    0.76880    0.38801   1.00
H1       0.85630    0.69122    0.39161   1.00
H1       0.85636    0.63559    0.43546   1.00
H2       0.84735    0.80099    0.39063   1.00
H2       0.84062    0.76205    0.35650   1.00
N1       0.80989    0.75625    0.40997   1.00
C6       0.80386    0.76144    0.44845   1.00
C6       0.77834    0.73788    0.39543   1.00
C6       0.76814    0.74602    0.45871   1.00
C6       0.75191    0.73104    0.42499   1.00
H3       0.82429    0.77549    0.46806   1.00
H3       0.77460    0.72984    0.36511   1.00
H3       0.75534    0.74576    0.48755   1.00
H3       0.72390    0.71680    0.42226   1.00
C4       0.68583    0.41440    0.41450   1.00
C4       0.64417    0.41560    0.41550   1.00
C3       0.70654    0.40290    0.38065   1.00
C3       0.62179    0.42894    0.38347   1.00
C3       0.70857    0.42562    0.44716   1.00
C3       0.62313    0.40244    0.44852   1.00
C2       0.77013    0.41390    0.41215   1.00
C2       0.55986    0.41607    0.41753   1.00
C3       0.74785    0.40263    0.37959   1.00
C3       0.58051    0.42920    0.38457   1.00
C3       0.74986    0.42533    0.44593   1.00
C3a      0.58172    0.40265    0.44974   1.00
H1       0.69075    0.39368    0.35489   1.00
H1       0.63625    0.43971    0.35754   1.00
H1       0.76260    0.39356    0.35318   1.00
H1       0.56444    0.43981    0.35952   1.00
H1       0.76618    0.43431    0.47144   1.00
C5       0.56120    0.38801    0.48572   1.00
H1       0.63878    0.39161    0.47370   1.00
H1       0.69441    0.43546    0.47364   1.00
H2       0.52901    0.39063    0.48265   1.00
H2       0.56795    0.35650    0.48938   1.00
N1       0.57375    0.40997    0.52011   1.00
C6       0.56856    0.44845    0.52614   1.00
C6       0.59212    0.39543    0.55166   1.00
C6       0.58398    0.45871    0.56186   1.00
C6       0.59896    0.42499    0.57809   1.00
H3       0.55451    0.46806    0.50571   1.00
H3       0.60016    0.36511    0.55540   1.00
H3       0.58424    0.48755    0.57466   1.00
H3       0.61320    0.42226    0.60610   1.00
C4       1.14417    0.41440    0.41550   1.00
C4       1.18583    0.41560    0.41450   1.00
C3       1.12346    0.40290    0.44935   1.00
C3       1.20821    0.42894    0.44653   1.00
C3       1.12143    0.42562    0.38284   1.00
C3       1.20687    0.40244    0.38148   1.00
C2       1.05987    0.41390    0.41785   1.00
C2       1.27014    0.41607    0.41247   1.00
C3       1.08215    0.40263    0.45041   1.00
C3       1.24949    0.42920    0.44543   1.00
C3       1.08014    0.42533    0.38407   1.00
C3a      1.24828    0.40265    0.38026   1.00
H1       1.13925    0.39368    0.47511   1.00
H1       1.19375    0.43971    0.47246   1.00
H1       1.06740    0.39356    0.47682   1.00
H1       1.26556    0.43981    0.47048   1.00
H1       1.06382    0.43431    0.35856   1.00
C5       1.26880    0.38801    0.34428   1.00
H1       1.19122    0.39161    0.35630   1.00
H1       1.13559    0.43546    0.35636   1.00
H2       1.30099    0.39063    0.34735   1.00
H2       1.26205    0.35650    0.34062   1.00
N1       1.25625    0.40997    0.30989   1.00
C6       1.26144    0.44845    0.30386   1.00
C6       1.23788    0.39543    0.27834   1.00
C6       1.24602    0.45871    0.26814   1.00
C6       1.23104    0.42499    0.25191   1.00
H3       1.27549    0.46806    0.32429   1.00
H3       1.22984    0.36511    0.27460   1.00
H3       1.24576    0.48755    0.25534   1.00
H3       1.21680    0.42226    0.22390   1.00
C4       0.91450    0.18583    0.41440   1.00
C4       0.91550    0.14417    0.41560   1.00
C3       0.88065    0.20654    0.40290   1.00
C3       0.88347    0.12179    0.42894   1.00
C3       0.94716    0.20857    0.42562   1.00
C3       0.94852    0.12313    0.40244   1.00
C2       0.91215    0.27013    0.41390   1.00
C2       0.91753    0.05986    0.41607   1.00
C3       0.87959    0.24785    0.40263   1.00
C3       0.88457    0.08051    0.42920   1.00
C3       0.94593    0.24986    0.42533   1.00
C3a      0.94974    0.08172    0.40265   1.00
H1       0.85489    0.19075    0.39368   1.00
H1       0.85754    0.13625    0.43971   1.00
H1       0.85318    0.26260    0.39356   1.00
H1       0.85952    0.06444    0.43981   1.00
H1       0.97144    0.26618    0.43431   1.00
C5       0.98572    0.06120    0.38801   1.00
H1       0.97370    0.13878    0.39161   1.00
H1       0.97364    0.19441    0.43546   1.00
H2       0.98265    0.02901    0.39063   1.00
H2       0.98938    0.06795    0.35650   1.00
N1       1.02011    0.07375    0.40997   1.00
C6       1.02614    0.06856    0.44845   1.00
C6       1.05166    0.09212    0.39543   1.00
C6       1.06186    0.08398    0.45871   1.00
C6       1.07809    0.09896    0.42499   1.00
H3       1.00571    0.05451    0.46806   1.00
H3       1.05540    0.10016    0.36511   1.00
H3       1.07466    0.08424    0.48755   1.00
H3       1.10610    0.11320    0.42226   1.00
C4       0.91440    0.41450    0.18583   1.00
C4       0.91560    0.41550    0.14417   1.00
C3       0.90290    0.38065    0.20654   1.00
C3       0.92894    0.38347    0.12179   1.00
C3       0.92562    0.44716    0.20857   1.00
C3       0.90244    0.44852    0.12313   1.00
C2       0.91390    0.41215    0.27013   1.00
C2       0.91607    0.41753    0.05986   1.00
C3       0.90263    0.37959    0.24785   1.00
C3       0.92920    0.38457    0.08051   1.00
C3       0.92533    0.44593    0.24986   1.00
C3a      0.90265    0.44974    0.08172   1.00
H1       0.89368    0.35489    0.19075   1.00
H1       0.93971    0.35754    0.13625   1.00
H1       0.89356    0.35318    0.26260   1.00
H1       0.93981    0.35952    0.06444   1.00
H1       0.93431    0.47144    0.26618   1.00
C5       0.88801    0.48572    0.06120   1.00
H1       0.89161    0.47370    0.13878   1.00
H1       0.93546    0.47364    0.19441   1.00
H2       0.89063    0.48265    0.02901   1.00
H2       0.85650    0.48938    0.06795   1.00
N1       0.90997    0.52011    0.07375   1.00
C6       0.94845    0.52614    0.06856   1.00
C6       0.89543    0.55166    0.09212   1.00
C6       0.95871    0.56186    0.08398   1.00
C6       0.92499    0.57809    0.09896   1.00
H3       0.96806    0.50571    0.05451   1.00
H3       0.86511    0.55540    0.10016   1.00
H3       0.98755    0.57466    0.08424   1.00
H3       0.92226    0.60610    0.11320   1.00
