data_IRMOF10_SG202_interpen_Ligand8cp_label_g.

_audit_creation_method             'generated by an auxiliary program of Tobunporous'

_symmetry_space_group_name_H-M     'P 1'
_symmetry_Int_Tables_number        1
_symmetry_cell_setting             triclinic

_cell_length_a                    34.2800
_cell_length_b                    34.2800
_cell_length_c                    34.2800
_cell_angle_alpha                 90.0000
_cell_angle_beta                  90.0000
_cell_angle_gamma                 90.0000

loop_
_atom_site_label
_atom_site_fract_x
_atom_site_fract_y
_atom_site_fract_z
_atom_site_occupancy
O1       0.75000    0.75000    0.75000   1.00
Zn1      0.71720    0.78280    0.78280   1.00
Zn1      0.78280    0.71720    0.78280   1.00
Zn1      0.78280    0.78280    0.71720   1.00
Zn1      0.71720    0.71720    0.71720   1.00
O2       0.72650    0.77350    0.83820   1.00
O2       0.72650    0.83820    0.77350   1.00
O2       0.66180    0.77350    0.77350   1.00
O2       0.77350    0.72650    0.83820   1.00
O2       0.83820    0.72650    0.77350   1.00
O2       0.77350    0.66180    0.77350   1.00
O2       0.77350    0.83820    0.72650   1.00
O2       0.83820    0.77350    0.72650   1.00
O2       0.77350    0.77350    0.66180   1.00
O2       0.66180    0.72650    0.72650   1.00
O2       0.72650    0.66180    0.72650   1.00
O2       0.72650    0.72650    0.66180   1.00
C1       0.75000    0.75000    0.85520   1.00
C1       0.75000    0.85520    0.75000   1.00
C1       0.64480    0.75000    0.75000   1.00
C1       0.85520    0.75000    0.75000   1.00
C1       0.75000    0.64480    0.75000   1.00
C1       0.75000    0.75000    0.64480   1.00
O1       0.25000    0.25000    0.75000   1.00
Zn1      0.21720    0.28280    0.78280   1.00
Zn1      0.28280    0.21720    0.78280   1.00
Zn1      0.28280    0.28280    0.71720   1.00
Zn1      0.21720    0.21720    0.71720   1.00
O2       0.22650    0.27350    0.83820   1.00
O2       0.22650    0.33820    0.77350   1.00
O2       0.16180    0.27350    0.77350   1.00
O2       0.27350    0.22650    0.83820   1.00
O2       0.33820    0.22650    0.77350   1.00
O2       0.27350    0.16180    0.77350   1.00
O2       0.27350    0.33820    0.72650   1.00
O2       0.33820    0.27350    0.72650   1.00
O2       0.27350    0.27350    0.66180   1.00
O2       0.16180    0.22650    0.72650   1.00
O2       0.22650    0.16180    0.72650   1.00
O2       0.22650    0.22650    0.66180   1.00
C1       0.25000    0.25000    0.85520   1.00
C1       0.25000    0.35520    0.75000   1.00
C1       0.14480    0.25000    0.75000   1.00
C1       0.35520    0.25000    0.75000   1.00
C1       0.25000    0.14480    0.75000   1.00
C1       0.25000    0.25000    0.64480   1.00
O1       0.25000    0.75000    0.25000   1.00
Zn1      0.21720    0.78280    0.28280   1.00
Zn1      0.28280    0.71720    0.28280   1.00
Zn1      0.28280    0.78280    0.21720   1.00
Zn1      0.21720    0.71720    0.21720   1.00
O2       0.22650    0.77350    0.33820   1.00
O2       0.22650    0.83820    0.27350   1.00
O2       0.16180    0.77350    0.27350   1.00
O2       0.27350    0.72650    0.33820   1.00
O2       0.33820    0.72650    0.27350   1.00
O2       0.27350    0.66180    0.27350   1.00
O2       0.27350    0.83820    0.22650   1.00
O2       0.33820    0.77350    0.22650   1.00
O2       0.27350    0.77350    0.16180   1.00
O2       0.16180    0.72650    0.22650   1.00
O2       0.22650    0.66180    0.22650   1.00
O2       0.22650    0.72650    0.16180   1.00
C1       0.25000    0.75000    0.35520   1.00
C1       0.25000    0.85520    0.25000   1.00
C1       0.14480    0.75000    0.25000   1.00
C1       0.35520    0.75000    0.25000   1.00
C1       0.25000    0.64480    0.25000   1.00
C1       0.25000    0.75000    0.14480   1.00
O1       0.75000    0.25000    0.25000   1.00
Zn1      0.71720    0.28280    0.28280   1.00
Zn1      0.78280    0.21720    0.28280   1.00
Zn1      0.78280    0.28280    0.21720   1.00
Zn1      0.71720    0.21720    0.21720   1.00
O2       0.72650    0.27350    0.33820   1.00
O2       0.72650    0.33820    0.27350   1.00
O2       0.66180    0.27350    0.27350   1.00
O2       0.77350    0.22650    0.33820   1.00
O2       0.83820    0.22650    0.27350   1.00
O2       0.77350    0.16180    0.27350   1.00
O2       0.77350    0.33820    0.22650   1.00
O2       0.83820    0.27350    0.22650   1.00
O2       0.77350    0.27350    0.16180   1.00
O2       0.66180    0.22650    0.22650   1.00
O2       0.72650    0.16180    0.22650   1.00
O2       0.72650    0.22650    0.16180   1.00
C1       0.75000    0.25000    0.35520   1.00
C1       0.75000    0.35520    0.25000   1.00
C1       0.64480    0.25000    0.25000   1.00
C1       0.85520    0.25000    0.25000   1.00
C1       0.75000    0.14480    0.25000   1.00
C1       0.75000    0.25000    0.14480   1.00
O1       0.25000    0.25000    0.25000   1.00
Zn1      0.28280    0.21720    0.21720   1.00
Zn1      0.21720    0.28280    0.21720   1.00
Zn1      0.21720    0.21720    0.28280   1.00
Zn1      0.28280    0.28280    0.28280   1.00
O2       0.27350    0.22650    0.16180   1.00
O2       0.27350    0.16180    0.22650   1.00
O2       0.33820    0.22650    0.22650   1.00
O2       0.22650    0.27350    0.16180   1.00
O2       0.16180    0.27350    0.22650   1.00
O2       0.22650    0.33820    0.22650   1.00
O2       0.22650    0.16180    0.27350   1.00
O2       0.16180    0.22650    0.27350   1.00
O2       0.22650    0.22650    0.33820   1.00
O2       0.33820    0.27350    0.27350   1.00
O2       0.27350    0.33820    0.27350   1.00
O2       0.27350    0.27350    0.33820   1.00
C1       0.25000    0.25000    0.14480   1.00
C1       0.25000    0.14480    0.25000   1.00
C1       0.35520    0.25000    0.25000   1.00
C1       0.14480    0.25000    0.25000   1.00
C1       0.25000    0.35520    0.25000   1.00
C1       0.25000    0.25000    0.35520   1.00
O1       0.75000    0.75000    0.25000   1.00
Zn1      0.78280    0.71720    0.21720   1.00
Zn1      0.71720    0.78280    0.21720   1.00
Zn1      0.71720    0.71720    0.28280   1.00
Zn1      0.78280    0.78280    0.28280   1.00
O2       0.77350    0.72650    0.16180   1.00
O2       0.77350    0.66180    0.22650   1.00
O2       0.83820    0.72650    0.22650   1.00
O2       0.72650    0.77350    0.16180   1.00
O2       0.66180    0.77350    0.22650   1.00
O2       0.72650    0.83820    0.22650   1.00
O2       0.72650    0.66180    0.27350   1.00
O2       0.66180    0.72650    0.27350   1.00
O2       0.72650    0.72650    0.33820   1.00
O2       0.83820    0.77350    0.27350   1.00
O2       0.77350    0.83820    0.27350   1.00
O2       0.77350    0.77350    0.33820   1.00
C1       0.75000    0.75000    0.14480   1.00
C1       0.75000    0.64480    0.25000   1.00
C1       0.85520    0.75000    0.25000   1.00
C1       0.64480    0.75000    0.25000   1.00
C1       0.75000    0.85520    0.25000   1.00
C1       0.75000    0.75000    0.35520   1.00
O1       0.75000    0.25000    0.75000   1.00
Zn1      0.78280    0.21720    0.71720   1.00
Zn1      0.71720    0.28280    0.71720   1.00
Zn1      0.71720    0.21720    0.78280   1.00
Zn1      0.78280    0.28280    0.78280   1.00
O2       0.77350    0.22650    0.66180   1.00
O2       0.77350    0.16180    0.72650   1.00
O2       0.83820    0.22650    0.72650   1.00
O2       0.72650    0.27350    0.66180   1.00
O2       0.66180    0.27350    0.72650   1.00
O2       0.72650    0.33820    0.72650   1.00
O2       0.72650    0.16180    0.77350   1.00
O2       0.66180    0.22650    0.77350   1.00
O2       0.72650    0.22650    0.83820   1.00
O2       0.83820    0.27350    0.77350   1.00
O2       0.77350    0.33820    0.77350   1.00
O2       0.77350    0.27350    0.83820   1.00
C1       0.75000    0.25000    0.64480   1.00
C1       0.75000    0.14480    0.75000   1.00
C1       0.85520    0.25000    0.75000   1.00
C1       0.64480    0.25000    0.75000   1.00
C1       0.75000    0.35520    0.75000   1.00
C1       0.75000    0.25000    0.85520   1.00
O1       0.25000    0.75000    0.75000   1.00
Zn1      0.28280    0.71720    0.71720   1.00
Zn1      0.21720    0.78280    0.71720   1.00
Zn1      0.21720    0.71720    0.78280   1.00
Zn1      0.28280    0.78280    0.78280   1.00
O2       0.27350    0.72650    0.66180   1.00
O2       0.27350    0.66180    0.72650   1.00
O2       0.33820    0.72650    0.72650   1.00
O2       0.22650    0.77350    0.66180   1.00
O2       0.16180    0.77350    0.72650   1.00
O2       0.22650    0.83820    0.72650   1.00
O2       0.22650    0.66180    0.77350   1.00
O2       0.16180    0.72650    0.77350   1.00
O2       0.22650    0.72650    0.83820   1.00
O2       0.33820    0.77350    0.77350   1.00
O2       0.27350    0.83820    0.77350   1.00
O2       0.27350    0.77350    0.83820   1.00
C1       0.25000    0.75000    0.64480   1.00
C1       0.25000    0.64480    0.75000   1.00
C1       0.35520    0.75000    0.75000   1.00
C1       0.14480    0.75000    0.75000   1.00
C1       0.25000    0.85520    0.75000   1.00
C1       0.25000    0.75000    0.85520   1.00
O1       0.91500    0.91500    0.91500   1.00
Zn1      0.88220    0.94780    0.94780   1.00
Zn1      0.94780    0.88220    0.94780   1.00
Zn1      0.94780    0.94780    0.88220   1.00
Zn1      0.88220    0.88220    0.88220   1.00
O2       0.89150    0.93850    1.00320   1.00
O2       0.89150    1.00320    0.93850   1.00
O2       0.82680    0.93850    0.93850   1.00
O2       0.93850    0.89150    1.00320   1.00
O2       1.00320    0.89150    0.93850   1.00
O2       0.93850    0.82680    0.93850   1.00
O2       0.93850    1.00320    0.89150   1.00
O2       1.00320    0.93850    0.89150   1.00
O2       0.93850    0.93850    0.82680   1.00
O2       0.82680    0.89150    0.89150   1.00
O2       0.89150    0.82680    0.89150   1.00
O2       0.89150    0.89150    0.82680   1.00
C1       0.91500    0.91500    1.02020   1.00
C1       0.91500    1.02020    0.91500   1.00
C1       0.80980    0.91500    0.91500   1.00
C1       1.02020    0.91500    0.91500   1.00
C1       0.91500    0.80980    0.91500   1.00
C1       0.91500    0.91500    0.80980   1.00
O1       0.41500    0.41500    0.91500   1.00
Zn1      0.38220    0.44780    0.94780   1.00
Zn1      0.44780    0.38220    0.94780   1.00
Zn1      0.44780    0.44780    0.88220   1.00
Zn1      0.38220    0.38220    0.88220   1.00
O2       0.39150    0.43850    1.00320   1.00
O2       0.39150    0.50320    0.93850   1.00
O2       0.32680    0.43850    0.93850   1.00
O2       0.43850    0.39150    1.00320   1.00
O2       0.50320    0.39150    0.93850   1.00
O2       0.43850    0.32680    0.93850   1.00
O2       0.43850    0.50320    0.89150   1.00
O2       0.50320    0.43850    0.89150   1.00
O2       0.43850    0.43850    0.82680   1.00
O2       0.32680    0.39150    0.89150   1.00
O2       0.39150    0.32680    0.89150   1.00
O2       0.39150    0.39150    0.82680   1.00
C1       0.41500    0.41500    1.02020   1.00
C1       0.41500    0.52020    0.91500   1.00
C1       0.30980    0.41500    0.91500   1.00
C1       0.52020    0.41500    0.91500   1.00
C1       0.41500    0.30980    0.91500   1.00
C1       0.41500    0.41500    0.80980   1.00
O1       0.41500    0.91500    0.41500   1.00
Zn1      0.38220    0.94780    0.44780   1.00
Zn1      0.44780    0.88220    0.44780   1.00
Zn1      0.44780    0.94780    0.38220   1.00
Zn1      0.38220    0.88220    0.38220   1.00
O2       0.39150    0.93850    0.50320   1.00
O2       0.39150    1.00320    0.43850   1.00
O2       0.32680    0.93850    0.43850   1.00
O2       0.43850    0.89150    0.50320   1.00
O2       0.50320    0.89150    0.43850   1.00
O2       0.43850    0.82680    0.43850   1.00
O2       0.43850    1.00320    0.39150   1.00
O2       0.50320    0.93850    0.39150   1.00
O2       0.43850    0.93850    0.32680   1.00
O2       0.32680    0.89150    0.39150   1.00
O2       0.39150    0.82680    0.39150   1.00
O2       0.39150    0.89150    0.32680   1.00
C1       0.41500    0.91500    0.52020   1.00
C1       0.41500    1.02020    0.41500   1.00
C1       0.30980    0.91500    0.41500   1.00
C1       0.52020    0.91500    0.41500   1.00
C1       0.41500    0.80980    0.41500   1.00
C1       0.41500    0.91500    0.30980   1.00
O1       0.91500    0.41500    0.41500   1.00
Zn1      0.88220    0.44780    0.44780   1.00
Zn1      0.94780    0.38220    0.44780   1.00
Zn1      0.94780    0.44780    0.38220   1.00
Zn1      0.88220    0.38220    0.38220   1.00
O2       0.89150    0.43850    0.50320   1.00
O2       0.89150    0.50320    0.43850   1.00
O2       0.82680    0.43850    0.43850   1.00
O2       0.93850    0.39150    0.50320   1.00
O2       1.00320    0.39150    0.43850   1.00
O2       0.93850    0.32680    0.43850   1.00
O2       0.93850    0.50320    0.39150   1.00
O2       1.00320    0.43850    0.39150   1.00
O2       0.93850    0.43850    0.32680   1.00
O2       0.82680    0.39150    0.39150   1.00
O2       0.89150    0.32680    0.39150   1.00
O2       0.89150    0.39150    0.32680   1.00
C1       0.91500    0.41500    0.52020   1.00
C1       0.91500    0.52020    0.41500   1.00
C1       0.80980    0.41500    0.41500   1.00
C1       1.02020    0.41500    0.41500   1.00
C1       0.91500    0.30980    0.41500   1.00
C1       0.91500    0.41500    0.30980   1.00
O1       0.41500    0.41500    0.41500   1.00
Zn1      0.44780    0.38220    0.38220   1.00
Zn1      0.38220    0.44780    0.38220   1.00
Zn1      0.38220    0.38220    0.44780   1.00
Zn1      0.44780    0.44780    0.44780   1.00
O2       0.43850    0.39150    0.32680   1.00
O2       0.43850    0.32680    0.39150   1.00
O2       0.50320    0.39150    0.39150   1.00
O2       0.39150    0.43850    0.32680   1.00
O2       0.32680    0.43850    0.39150   1.00
O2       0.39150    0.50320    0.39150   1.00
O2       0.39150    0.32680    0.43850   1.00
O2       0.32680    0.39150    0.43850   1.00
O2       0.39150    0.39150    0.50320   1.00
O2       0.50320    0.43850    0.43850   1.00
O2       0.43850    0.50320    0.43850   1.00
O2       0.43850    0.43850    0.50320   1.00
C1       0.41500    0.41500    0.30980   1.00
C1       0.41500    0.30980    0.41500   1.00
C1       0.52020    0.41500    0.41500   1.00
C1       0.30980    0.41500    0.41500   1.00
C1       0.41500    0.52020    0.41500   1.00
C1       0.41500    0.41500    0.52020   1.00
O1       0.91500    0.91500    0.41500   1.00
Zn1      0.94780    0.88220    0.38220   1.00
Zn1      0.88220    0.94780    0.38220   1.00
Zn1      0.88220    0.88220    0.44780   1.00
Zn1      0.94780    0.94780    0.44780   1.00
O2       0.93850    0.89150    0.32680   1.00
O2       0.93850    0.82680    0.39150   1.00
O2       1.00320    0.89150    0.39150   1.00
O2       0.89150    0.93850    0.32680   1.00
O2       0.82680    0.93850    0.39150   1.00
O2       0.89150    1.00320    0.39150   1.00
O2       0.89150    0.82680    0.43850   1.00
O2       0.82680    0.89150    0.43850   1.00
O2       0.89150    0.89150    0.50320   1.00
O2       1.00320    0.93850    0.43850   1.00
O2       0.93850    1.00320    0.43850   1.00
O2       0.93850    0.93850    0.50320   1.00
C1       0.91500    0.91500    0.30980   1.00
C1       0.91500    0.80980    0.41500   1.00
C1       1.02020    0.91500    0.41500   1.00
C1       0.80980    0.91500    0.41500   1.00
C1       0.91500    1.02020    0.41500   1.00
C1       0.91500    0.91500    0.52020   1.00
O1       0.91500    0.41500    0.91500   1.00
Zn1      0.94780    0.38220    0.88220   1.00
Zn1      0.88220    0.44780    0.88220   1.00
Zn1      0.88220    0.38220    0.94780   1.00
Zn1      0.94780    0.44780    0.94780   1.00
O2       0.93850    0.39150    0.82680   1.00
O2       0.93850    0.32680    0.89150   1.00
O2       1.00320    0.39150    0.89150   1.00
O2       0.89150    0.43850    0.82680   1.00
O2       0.82680    0.43850    0.89150   1.00
O2       0.89150    0.50320    0.89150   1.00
O2       0.89150    0.32680    0.93850   1.00
O2       0.82680    0.39150    0.93850   1.00
O2       0.89150    0.39150    1.00320   1.00
O2       1.00320    0.43850    0.93850   1.00
O2       0.93850    0.50320    0.93850   1.00
O2       0.93850    0.43850    1.00320   1.00
C1       0.91500    0.41500    0.80980   1.00
C1       0.91500    0.30980    0.91500   1.00
C1       1.02020    0.41500    0.91500   1.00
C1       0.80980    0.41500    0.91500   1.00
C1       0.91500    0.52020    0.91500   1.00
C1       0.91500    0.41500    1.02020   1.00
O1       0.41500    0.91500    0.91500   1.00
Zn1      0.44780    0.88220    0.88220   1.00
Zn1      0.38220    0.94780    0.88220   1.00
Zn1      0.38220    0.88220    0.94780   1.00
Zn1      0.44780    0.94780    0.94780   1.00
O2       0.43850    0.89150    0.82680   1.00
O2       0.43850    0.82680    0.89150   1.00
O2       0.50320    0.89150    0.89150   1.00
O2       0.39150    0.93850    0.82680   1.00
O2       0.32680    0.93850    0.89150   1.00
O2       0.39150    1.00320    0.89150   1.00
O2       0.39150    0.82680    0.93850   1.00
O2       0.32680    0.89150    0.93850   1.00
O2       0.39150    0.89150    1.00320   1.00
O2       0.50320    0.93850    0.93850   1.00
O2       0.43850    1.00320    0.93850   1.00
O2       0.43850    0.93850    1.00320   1.00
C1       0.41500    0.91500    0.80980   1.00
C1       0.41500    0.80980    0.91500   1.00
C1       0.52020    0.91500    0.91500   1.00
C1       0.30980    0.91500    0.91500   1.00
C1       0.41500    1.02020    0.91500   1.00
C1       0.41500    0.91500    1.02020   1.00
C4       0.75010    0.75002    0.97915   1.00
C4       0.74990    0.74998    1.02085   1.00
C3       0.76692    0.78047    0.95708   1.00
C3       0.77647    0.72688    1.04225   1.00
C3       0.73310    0.71888    0.95816   1.00
C3a      0.72332    0.77358    1.04263   1.00
C2       0.74901    0.74887    0.89483   1.00
C2       0.75118    0.75087    1.10517   1.00
C3       0.76633    0.77985    0.91566   1.00
C3       0.77706    0.72738    1.08359   1.00
C3       0.73242    0.71842    0.91680   1.00
C3       0.72447    0.77375    1.08415   1.00
H1       0.78052    0.80482    0.97192   1.00
H1       0.79710    0.70854    1.02685   1.00
H1       0.77945    0.80373    0.89968   1.00
H1       0.79795    0.70933    1.09895   1.00
H1       0.71862    0.69429    0.90179   1.00
H1       0.70414    0.79162    1.10043   1.00
C5       0.69281    0.79831    1.02239   1.00
H1       0.71933    0.69527    0.97401   1.00
H2       0.67750    0.81755    1.04354   1.00
H2       0.70734    0.81790    1.00103   1.00
N1       0.66388    0.77366    1.00292   1.00
C6       0.64080    0.74691    1.02012   1.00
C6       0.65521    0.77386    0.96460   1.00
C6       0.61734    0.72954    0.99243   1.00
C6       0.62653    0.74667    0.95711   1.00
H3       0.64109    0.74016    1.05099   1.00
H3       0.66920    0.79231    0.94309   1.00
H3       0.59591    0.70693    0.99741   1.00
H3       0.61378    0.74006    0.92903   1.00
C4       0.75002    0.97915    0.75010   1.00
C4       0.74998    1.02085    0.74990   1.00
C3       0.78047    0.95708    0.76692   1.00
C3       0.72688    1.04225    0.77647   1.00
C3       0.71888    0.95816    0.73310   1.00
C3a      0.77358    1.04263    0.72332   1.00
C2       0.74887    0.89483    0.74901   1.00
C2       0.75087    1.10517    0.75118   1.00
C3       0.77985    0.91566    0.76633   1.00
C3       0.72738    1.08359    0.77706   1.00
C3       0.71842    0.91680    0.73242   1.00
C3       0.77375    1.08415    0.72447   1.00
H1       0.80482    0.97192    0.78052   1.00
H1       0.70854    1.02685    0.79710   1.00
H1       0.80373    0.89968    0.77945   1.00
H1       0.70933    1.09895    0.79795   1.00
H1       0.69429    0.90179    0.71862   1.00
H1       0.79162    1.10043    0.70414   1.00
C5       0.79831    1.02239    0.69281   1.00
H1       0.69527    0.97401    0.71933   1.00
H2       0.81755    1.04354    0.67750   1.00
H2       0.81790    1.00103    0.70734   1.00
N1       0.77366    1.00292    0.66388   1.00
C6       0.74691    1.02012    0.64080   1.00
C6       0.77386    0.96460    0.65521   1.00
C6       0.72954    0.99243    0.61734   1.00
C6       0.74667    0.95711    0.62653   1.00
H3       0.74016    1.05099    0.64109   1.00
H3       0.79231    0.94309    0.66920   1.00
H3       0.70693    0.99741    0.59591   1.00
H3       0.74006    0.92903    0.61378   1.00
C4       0.52085    0.75010    0.74998   1.00
C4       0.47915    0.74990    0.75002   1.00
C3       0.54292    0.76692    0.71953   1.00
C3       0.45775    0.77647    0.77312   1.00
C3       0.54184    0.73310    0.78112   1.00
C3a      0.45737    0.72332    0.72642   1.00
C2       0.60517    0.74901    0.75113   1.00
C2       0.39483    0.75118    0.74913   1.00
C3       0.58434    0.76633    0.72015   1.00
C3       0.41641    0.77706    0.77262   1.00
C3       0.58320    0.73242    0.78158   1.00
C3       0.41585    0.72447    0.72625   1.00
H1       0.52808    0.78052    0.69518   1.00
H1       0.47315    0.79710    0.79146   1.00
H1       0.60032    0.77945    0.69627   1.00
H1       0.40105    0.79795    0.79067   1.00
H1       0.59821    0.71862    0.80571   1.00
H1       0.39957    0.70414    0.70838   1.00
C5       0.47761    0.69281    0.70169   1.00
H1       0.52599    0.71933    0.80473   1.00
H2       0.45646    0.67750    0.68245   1.00
H2       0.49897    0.70734    0.68210   1.00
N1       0.49708    0.66388    0.72634   1.00
C6       0.47988    0.64080    0.75309   1.00
C6       0.53540    0.65521    0.72614   1.00
C6       0.50757    0.61734    0.77046   1.00
C6       0.54289    0.62653    0.75333   1.00
H3       0.44901    0.64109    0.75984   1.00
H3       0.55691    0.66920    0.70769   1.00
H3       0.50259    0.59591    0.79307   1.00
H3       0.57097    0.61378    0.75994   1.00
C4       0.97915    0.75010    0.75002   1.00
C4       1.02085    0.74990    0.74998   1.00
C3       0.95708    0.76692    0.78047   1.00
C3       1.04225    0.77647    0.72688   1.00
C3       0.95816    0.73310    0.71888   1.00
C3a      1.04263    0.72332    0.77358   1.00
C2       0.89483    0.74901    0.74887   1.00
C2       1.10517    0.75118    0.75087   1.00
C3       0.91566    0.76633    0.77985   1.00
C3       1.08359    0.77706    0.72738   1.00
C3       0.91680    0.73242    0.71842   1.00
C3       1.08415    0.72447    0.77375   1.00
H1       0.97192    0.78052    0.80482   1.00
H1       1.02685    0.79710    0.70854   1.00
H1       0.89968    0.77945    0.80373   1.00
H1       1.09895    0.79795    0.70933   1.00
H1       0.90179    0.71862    0.69429   1.00
H1       1.10043    0.70414    0.79162   1.00
C5       1.02239    0.69281    0.79831   1.00
H1       0.97401    0.71933    0.69527   1.00
H2       1.04354    0.67750    0.81755   1.00
H2       1.00103    0.70734    0.81790   1.00
N1       1.00292    0.66388    0.77366   1.00
C6       1.02012    0.64080    0.74691   1.00
C6       0.96460    0.65521    0.77386   1.00
C6       0.99243    0.61734    0.72954   1.00
C6       0.95711    0.62653    0.74667   1.00
H3       1.05099    0.64109    0.74016   1.00
H3       0.94309    0.66920    0.79231   1.00
H3       0.99741    0.59591    0.70693   1.00
H3       0.92903    0.61378    0.74006   1.00
C4       0.74998    0.52085    0.75010   1.00
C4       0.75002    0.47915    0.74990   1.00
C3       0.71953    0.54292    0.76692   1.00
C3       0.77312    0.45775    0.77647   1.00
C3       0.78112    0.54184    0.73310   1.00
C3a      0.72642    0.45737    0.72332   1.00
C2       0.75113    0.60517    0.74901   1.00
C2       0.74913    0.39483    0.75118   1.00
C3       0.72015    0.58434    0.76633   1.00
C3       0.77262    0.41641    0.77706   1.00
C3       0.78158    0.58320    0.73242   1.00
C3       0.72625    0.41585    0.72447   1.00
H1       0.69518    0.52808    0.78052   1.00
H1       0.79146    0.47315    0.79710   1.00
H1       0.69627    0.60032    0.77945   1.00
H1       0.79067    0.40105    0.79795   1.00
H1       0.80571    0.59821    0.71862   1.00
H1       0.70838    0.39957    0.70414   1.00
C5       0.70169    0.47761    0.69281   1.00
H1       0.80473    0.52599    0.71933   1.00
H2       0.68245    0.45646    0.67750   1.00
H2       0.68210    0.49897    0.70734   1.00
N1       0.72634    0.49708    0.66388   1.00
C6       0.75309    0.47988    0.64080   1.00
C6       0.72614    0.53540    0.65521   1.00
C6       0.77046    0.50757    0.61734   1.00
C6       0.75333    0.54289    0.62653   1.00
H3       0.75984    0.44901    0.64109   1.00
H3       0.70769    0.55691    0.66920   1.00
H3       0.79307    0.50259    0.59591   1.00
H3       0.75994    0.57097    0.61378   1.00
C4       0.75010    0.74998    0.52085   1.00
C4       0.74990    0.75002    0.47915   1.00
C3       0.76692    0.71953    0.54292   1.00
C3       0.77647    0.77312    0.45775   1.00
C3       0.73310    0.78112    0.54184   1.00
C3a      0.72332    0.72642    0.45737   1.00
C2       0.74901    0.75113    0.60517   1.00
C2       0.75118    0.74913    0.39483   1.00
C3       0.76633    0.72015    0.58434   1.00
C3       0.77706    0.77262    0.41641   1.00
C3       0.73242    0.78158    0.58320   1.00
C3       0.72447    0.72625    0.41585   1.00
H1       0.78052    0.69518    0.52808   1.00
H1       0.79710    0.79146    0.47315   1.00
H1       0.77945    0.69627    0.60032   1.00
H1       0.79795    0.79067    0.40105   1.00
H1       0.71862    0.80571    0.59821   1.00
H1       0.70414    0.70838    0.39957   1.00
C5       0.69281    0.70169    0.47761   1.00
H1       0.71933    0.80473    0.52599   1.00
H2       0.67750    0.68245    0.45646   1.00
H2       0.70734    0.68210    0.49897   1.00
N1       0.66388    0.72634    0.49708   1.00
C6       0.64080    0.75309    0.47988   1.00
C6       0.65521    0.72614    0.53540   1.00
C6       0.61734    0.77046    0.50757   1.00
C6       0.62653    0.75333    0.54289   1.00
H3       0.64109    0.75984    0.44901   1.00
H3       0.66920    0.70769    0.55691   1.00
H3       0.59591    0.79307    0.50259   1.00
H3       0.61378    0.75994    0.57097   1.00
C4       0.25010    0.25002    0.97915   1.00
C4       0.24990    0.24998    1.02085   1.00
C3       0.26692    0.28047    0.95708   1.00
C3       0.27647    0.22688    1.04225   1.00
C3       0.23310    0.21888    0.95816   1.00
C3a      0.22332    0.27358    1.04263   1.00
C2       0.24901    0.24887    0.89483   1.00
C2       0.25118    0.25087    1.10517   1.00
C3       0.26633    0.27985    0.91566   1.00
C3       0.27706    0.22738    1.08359   1.00
C3       0.23242    0.21842    0.91680   1.00
C3       0.22447    0.27375    1.08415   1.00
H1       0.28052    0.30482    0.97192   1.00
H1       0.29710    0.20854    1.02685   1.00
H1       0.27945    0.30373    0.89968   1.00
H1       0.29795    0.20933    1.09895   1.00
H1       0.21862    0.19429    0.90179   1.00
H1       0.20414    0.29162    1.10043   1.00
C5       0.19281    0.29831    1.02239   1.00
H1       0.21933    0.19527    0.97401   1.00
H2       0.17750    0.31755    1.04354   1.00
H2       0.20734    0.31790    1.00103   1.00
N1       0.16388    0.27366    1.00292   1.00
C6       0.14080    0.24691    1.02012   1.00
C6       0.15521    0.27386    0.96460   1.00
C6       0.11734    0.22954    0.99243   1.00
C6       0.12653    0.24667    0.95711   1.00
H3       0.14109    0.24016    1.05099   1.00
H3       0.16920    0.29231    0.94309   1.00
H3       0.09591    0.20693    0.99741   1.00
H3       0.11378    0.24006    0.92903   1.00
C4       0.25002    0.47915    0.75010   1.00
C4       0.24998    0.52085    0.74990   1.00
C3       0.28047    0.45708    0.76692   1.00
C3       0.22688    0.54225    0.77647   1.00
C3       0.21888    0.45816    0.73310   1.00
C3a      0.27358    0.54263    0.72332   1.00
C2       0.24887    0.39483    0.74901   1.00
C2       0.25087    0.60517    0.75118   1.00
C3       0.27985    0.41566    0.76633   1.00
C3       0.22738    0.58359    0.77706   1.00
C3       0.21842    0.41680    0.73242   1.00
C3       0.27375    0.58415    0.72447   1.00
H1       0.30482    0.47192    0.78052   1.00
H1       0.20854    0.52685    0.79710   1.00
H1       0.30373    0.39968    0.77945   1.00
H1       0.20933    0.59895    0.79795   1.00
H1       0.19429    0.40179    0.71862   1.00
H1       0.29162    0.60043    0.70414   1.00
C5       0.29831    0.52239    0.69281   1.00
H1       0.19527    0.47401    0.71933   1.00
H2       0.31755    0.54354    0.67750   1.00
H2       0.31790    0.50103    0.70734   1.00
N1       0.27366    0.50292    0.66388   1.00
C6       0.24691    0.52012    0.64080   1.00
C6       0.27386    0.46460    0.65521   1.00
C6       0.22954    0.49243    0.61734   1.00
C6       0.24667    0.45711    0.62653   1.00
H3       0.24016    0.55099    0.64109   1.00
H3       0.29231    0.44309    0.66920   1.00
H3       0.20693    0.49741    0.59591   1.00
H3       0.24006    0.42903    0.61378   1.00
C4       0.02085    0.25010    0.74998   1.00
C4       -0.02085   0.24990    0.75002   1.00
C3       0.04292    0.26692    0.71953   1.00
C3       -0.04225   0.27647    0.77312   1.00
C3       0.04184    0.23310    0.78112   1.00
C3a      -0.04263   0.22332    0.72642   1.00
C2       0.10517    0.24901    0.75113   1.00
C2       -0.10517   0.25118    0.74913   1.00
C3       0.08434    0.26633    0.72015   1.00
C3       -0.08359   0.27706    0.77262   1.00
C3       0.08320    0.23242    0.78158   1.00
C3       -0.08415   0.22447    0.72625   1.00
H1       0.02808    0.28052    0.69518   1.00
H1       -0.02685   0.29710    0.79146   1.00
H1       0.10032    0.27945    0.69627   1.00
H1       -0.09895   0.29795    0.79067   1.00
H1       0.09821    0.21862    0.80571   1.00
H1       -0.10043   0.20414    0.70838   1.00
C5       -0.02239   0.19281    0.70169   1.00
H1       0.02599    0.21933    0.80473   1.00
H2       -0.04354   0.17750    0.68245   1.00
H2       -0.00103   0.20734    0.68210   1.00
N1       -0.00292   0.16388    0.72634   1.00
C6       -0.02012   0.14080    0.75309   1.00
C6       0.03540    0.15521    0.72614   1.00
C6       0.00757    0.11734    0.77046   1.00
C6       0.04289    0.12653    0.75333   1.00
H3       -0.05099   0.14109    0.75984   1.00
H3       0.05691    0.16920    0.70769   1.00
H3       0.00259    0.09591    0.79307   1.00
H3       0.07097    0.11378    0.75994   1.00
C4       0.47915    0.25010    0.75002   1.00
C4       0.52085    0.24990    0.74998   1.00
C3       0.45708    0.26692    0.78047   1.00
C3       0.54225    0.27647    0.72688   1.00
C3       0.45816    0.23310    0.71888   1.00
C3a      0.54263    0.22332    0.77358   1.00
C2       0.39483    0.24901    0.74887   1.00
C2       0.60517    0.25118    0.75087   1.00
C3       0.41566    0.26633    0.77985   1.00
C3       0.58359    0.27706    0.72738   1.00
C3       0.41680    0.23242    0.71842   1.00
C3       0.58415    0.22447    0.77375   1.00
H1       0.47192    0.28052    0.80482   1.00
H1       0.52685    0.29710    0.70854   1.00
H1       0.39968    0.27945    0.80373   1.00
H1       0.59895    0.29795    0.70933   1.00
H1       0.40179    0.21862    0.69429   1.00
H1       0.60043    0.20414    0.79162   1.00
C5       0.52239    0.19281    0.79831   1.00
H1       0.47401    0.21933    0.69527   1.00
H2       0.54354    0.17750    0.81755   1.00
H2       0.50103    0.20734    0.81790   1.00
N1       0.50292    0.16388    0.77366   1.00
C6       0.52012    0.14080    0.74691   1.00
C6       0.46460    0.15521    0.77386   1.00
C6       0.49243    0.11734    0.72954   1.00
C6       0.45711    0.12653    0.74667   1.00
H3       0.55099    0.14109    0.74016   1.00
H3       0.44309    0.16920    0.79231   1.00
H3       0.49741    0.09591    0.70693   1.00
H3       0.42903    0.11378    0.74006   1.00
C4       0.24998    0.02085    0.75010   1.00
C4       0.25002    -0.02085   0.74990   1.00
C3       0.21953    0.04292    0.76692   1.00
C3       0.27312    -0.04225   0.77647   1.00
C3       0.28112    0.04184    0.73310   1.00
C3a      0.22642    -0.04263   0.72332   1.00
C2       0.25113    0.10517    0.74901   1.00
C2       0.24913    -0.10517   0.75118   1.00
C3       0.22015    0.08434    0.76633   1.00
C3       0.27262    -0.08359   0.77706   1.00
C3       0.28158    0.08320    0.73242   1.00
C3       0.22625    -0.08415   0.72447   1.00
H1       0.19518    0.02808    0.78052   1.00
H1       0.29146    -0.02685   0.79710   1.00
H1       0.19627    0.10032    0.77945   1.00
H1       0.29067    -0.09895   0.79795   1.00
H1       0.30571    0.09821    0.71862   1.00
H1       0.20838    -0.10043   0.70414   1.00
C5       0.20169    -0.02239   0.69281   1.00
H1       0.30473    0.02599    0.71933   1.00
H2       0.18245    -0.04354   0.67750   1.00
H2       0.18210    -0.00103   0.70734   1.00
N1       0.22634    -0.00292   0.66388   1.00
C6       0.25309    -0.02012   0.64080   1.00
C6       0.22614    0.03540    0.65521   1.00
C6       0.27046    0.00757    0.61734   1.00
C6       0.25333    0.04289    0.62653   1.00
H3       0.25984    -0.05099   0.64109   1.00
H3       0.20769    0.05691    0.66920   1.00
H3       0.29307    0.00259    0.59591   1.00
H3       0.25994    0.07097    0.61378   1.00
C4       0.25010    0.24998    0.52085   1.00
C4       0.24990    0.25002    0.47915   1.00
C3       0.26692    0.21953    0.54292   1.00
C3       0.27647    0.27312    0.45775   1.00
C3       0.23310    0.28112    0.54184   1.00
C3a      0.22332    0.22642    0.45737   1.00
C2       0.24901    0.25113    0.60517   1.00
C2       0.25118    0.24913    0.39483   1.00
C3       0.26633    0.22015    0.58434   1.00
C3       0.27706    0.27262    0.41641   1.00
C3       0.23242    0.28158    0.58320   1.00
C3       0.22447    0.22625    0.41585   1.00
H1       0.28052    0.19518    0.52808   1.00
H1       0.29710    0.29146    0.47315   1.00
H1       0.27945    0.19627    0.60032   1.00
H1       0.29795    0.29067    0.40105   1.00
H1       0.21862    0.30571    0.59821   1.00
H1       0.20414    0.20838    0.39957   1.00
C5       0.19281    0.20169    0.47761   1.00
H1       0.21933    0.30473    0.52599   1.00
H2       0.17750    0.18245    0.45646   1.00
H2       0.20734    0.18210    0.49897   1.00
N1       0.16388    0.22634    0.49708   1.00
C6       0.14080    0.25309    0.47988   1.00
C6       0.15521    0.22614    0.53540   1.00
C6       0.11734    0.27046    0.50757   1.00
C6       0.12653    0.25333    0.54289   1.00
H3       0.14109    0.25984    0.44901   1.00
H3       0.16920    0.20769    0.55691   1.00
H3       0.09591    0.29307    0.50259   1.00
H3       0.11378    0.25994    0.57097   1.00
C4       0.25010    0.75002    0.47915   1.00
C4       0.24990    0.74998    0.52085   1.00
C3       0.26692    0.78047    0.45708   1.00
C3       0.27647    0.72688    0.54225   1.00
C3       0.23310    0.71888    0.45816   1.00
C3a      0.22332    0.77358    0.54263   1.00
C2       0.24901    0.74887    0.39483   1.00
C2       0.25118    0.75087    0.60517   1.00
C3       0.26633    0.77985    0.41566   1.00
C3       0.27706    0.72738    0.58359   1.00
C3       0.23242    0.71842    0.41680   1.00
C3       0.22447    0.77375    0.58415   1.00
H1       0.28052    0.80482    0.47192   1.00
H1       0.29710    0.70854    0.52685   1.00
H1       0.27945    0.80373    0.39968   1.00
H1       0.29795    0.70933    0.59895   1.00
H1       0.21862    0.69429    0.40179   1.00
H1       0.20414    0.79162    0.60043   1.00
C5       0.19281    0.79831    0.52239   1.00
H1       0.21933    0.69527    0.47401   1.00
H2       0.17750    0.81755    0.54354   1.00
H2       0.20734    0.81790    0.50103   1.00
N1       0.16388    0.77366    0.50292   1.00
C6       0.14080    0.74691    0.52012   1.00
C6       0.15521    0.77386    0.46460   1.00
C6       0.11734    0.72954    0.49243   1.00
C6       0.12653    0.74667    0.45711   1.00
H3       0.14109    0.74016    0.55099   1.00
H3       0.16920    0.79231    0.44309   1.00
H3       0.09591    0.70693    0.49741   1.00
H3       0.11378    0.74006    0.42903   1.00
C4       0.25002    0.97915    0.25010   1.00
C4       0.24998    1.02085    0.24990   1.00
C3       0.28047    0.95708    0.26692   1.00
C3       0.22688    1.04225    0.27647   1.00
C3       0.21888    0.95816    0.23310   1.00
C3a      0.27358    1.04263    0.22332   1.00
C2       0.24887    0.89483    0.24901   1.00
C2       0.25087    1.10517    0.25118   1.00
C3       0.27985    0.91566    0.26633   1.00
C3       0.22738    1.08359    0.27706   1.00
C3       0.21842    0.91680    0.23242   1.00
C3       0.27375    1.08415    0.22447   1.00
H1       0.30482    0.97192    0.28052   1.00
H1       0.20854    1.02685    0.29710   1.00
H1       0.30373    0.89968    0.27945   1.00
H1       0.20933    1.09895    0.29795   1.00
H1       0.19429    0.90179    0.21862   1.00
H1       0.29162    1.10043    0.20414   1.00
C5       0.29831    1.02239    0.19281   1.00
H1       0.19527    0.97401    0.21933   1.00
H2       0.31755    1.04354    0.17750   1.00
H2       0.31790    1.00103    0.20734   1.00
N1       0.27366    1.00292    0.16388   1.00
C6       0.24691    1.02012    0.14080   1.00
C6       0.27386    0.96460    0.15521   1.00
C6       0.22954    0.99243    0.11734   1.00
C6       0.24667    0.95711    0.12653   1.00
H3       0.24016    1.05099    0.14109   1.00
H3       0.29231    0.94309    0.16920   1.00
H3       0.20693    0.99741    0.09591   1.00
H3       0.24006    0.92903    0.11378   1.00
C4       0.02085    0.75010    0.24998   1.00
C4       -0.02085   0.74990    0.25002   1.00
C3       0.04292    0.76692    0.21953   1.00
C3       -0.04225   0.77647    0.27312   1.00
C3       0.04184    0.73310    0.28112   1.00
C3a      -0.04263   0.72332    0.22642   1.00
C2       0.10517    0.74901    0.25113   1.00
C2       -0.10517   0.75118    0.24913   1.00
C3       0.08434    0.76633    0.22015   1.00
C3       -0.08359   0.77706    0.27262   1.00
C3       0.08320    0.73242    0.28158   1.00
C3       -0.08415   0.72447    0.22625   1.00
H1       0.02808    0.78052    0.19518   1.00
H1       -0.02685   0.79710    0.29146   1.00
H1       0.10032    0.77945    0.19627   1.00
H1       -0.09895   0.79795    0.29067   1.00
H1       0.09821    0.71862    0.30571   1.00
H1       -0.10043   0.70414    0.20838   1.00
C5       -0.02239   0.69281    0.20169   1.00
H1       0.02599    0.71933    0.30473   1.00
H2       -0.04354   0.67750    0.18245   1.00
H2       -0.00103   0.70734    0.18210   1.00
N1       -0.00292   0.66388    0.22634   1.00
C6       -0.02012   0.64080    0.25309   1.00
C6       0.03540    0.65521    0.22614   1.00
C6       0.00757    0.61734    0.27046   1.00
C6       0.04289    0.62653    0.25333   1.00
H3       -0.05099   0.64109    0.25984   1.00
H3       0.05691    0.66920    0.20769   1.00
H3       0.00259    0.59591    0.29307   1.00
H3       0.07097    0.61378    0.25994   1.00
C4       0.47915    0.75010    0.25002   1.00
C4       0.52085    0.74990    0.24998   1.00
C3       0.45708    0.76692    0.28047   1.00
C3       0.54225    0.77647    0.22688   1.00
C3       0.45816    0.73310    0.21888   1.00
C3a      0.54263    0.72332    0.27358   1.00
C2       0.39483    0.74901    0.24887   1.00
C2       0.60517    0.75118    0.25087   1.00
C3       0.41566    0.76633    0.27985   1.00
C3       0.58359    0.77706    0.22738   1.00
C3       0.41680    0.73242    0.21842   1.00
C3       0.58415    0.72447    0.27375   1.00
H1       0.47192    0.78052    0.30482   1.00
H1       0.52685    0.79710    0.20854   1.00
H1       0.39968    0.77945    0.30373   1.00
H1       0.59895    0.79795    0.20933   1.00
H1       0.40179    0.71862    0.19429   1.00
H1       0.60043    0.70414    0.29162   1.00
C5       0.52239    0.69281    0.29831   1.00
H1       0.47401    0.71933    0.19527   1.00
H2       0.54354    0.67750    0.31755   1.00
H2       0.50103    0.70734    0.31790   1.00
N1       0.50292    0.66388    0.27366   1.00
C6       0.52012    0.64080    0.24691   1.00
C6       0.46460    0.65521    0.27386   1.00
C6       0.49243    0.61734    0.22954   1.00
C6       0.45711    0.62653    0.24667   1.00
H3       0.55099    0.64109    0.24016   1.00
H3       0.44309    0.66920    0.29231   1.00
H3       0.49741    0.59591    0.20693   1.00
H3       0.42903    0.61378    0.24006   1.00
C4       0.24998    0.52085    0.25010   1.00
C4       0.25002    0.47915    0.24990   1.00
C3       0.21953    0.54292    0.26692   1.00
C3       0.27312    0.45775    0.27647   1.00
C3       0.28112    0.54184    0.23310   1.00
C3a      0.22642    0.45737    0.22332   1.00
C2       0.25113    0.60517    0.24901   1.00
C2       0.24913    0.39483    0.25118   1.00
C3       0.22015    0.58434    0.26633   1.00
C3       0.27262    0.41641    0.27706   1.00
C3       0.28158    0.58320    0.23242   1.00
C3       0.22625    0.41585    0.22447   1.00
H1       0.19518    0.52808    0.28052   1.00
H1       0.29146    0.47315    0.29710   1.00
H1       0.19627    0.60032    0.27945   1.00
H1       0.29067    0.40105    0.29795   1.00
H1       0.30571    0.59821    0.21862   1.00
H1       0.20838    0.39957    0.20414   1.00
C5       0.20169    0.47761    0.19281   1.00
H1       0.30473    0.52599    0.21933   1.00
H2       0.18245    0.45646    0.17750   1.00
H2       0.18210    0.49897    0.20734   1.00
N1       0.22634    0.49708    0.16388   1.00
C6       0.25309    0.47988    0.14080   1.00
C6       0.22614    0.53540    0.15521   1.00
C6       0.27046    0.50757    0.11734   1.00
C6       0.25333    0.54289    0.12653   1.00
H3       0.25984    0.44901    0.14109   1.00
H3       0.20769    0.55691    0.16920   1.00
H3       0.29307    0.50259    0.09591   1.00
H3       0.25994    0.57097    0.11378   1.00
C4       0.25010    0.74998    0.02085   1.00
C4       0.24990    0.75002    -0.02085   1.00
C3       0.26692    0.71953    0.04292   1.00
C3       0.27647    0.77312    -0.04225   1.00
C3       0.23310    0.78112    0.04184   1.00
C3a      0.22332    0.72642    -0.04263   1.00
C2       0.24901    0.75113    0.10517   1.00
C2       0.25118    0.74913    -0.10517   1.00
C3       0.26633    0.72015    0.08434   1.00
C3       0.27706    0.77262    -0.08359   1.00
C3       0.23242    0.78158    0.08320   1.00
C3       0.22447    0.72625    -0.08415   1.00
H1       0.28052    0.69518    0.02808   1.00
H1       0.29710    0.79146    -0.02685   1.00
H1       0.27945    0.69627    0.10032   1.00
H1       0.29795    0.79067    -0.09895   1.00
H1       0.21862    0.80571    0.09821   1.00
H1       0.20414    0.70838    -0.10043   1.00
C5       0.19281    0.70169    -0.02239   1.00
H1       0.21933    0.80473    0.02599   1.00
H2       0.17750    0.68245    -0.04354   1.00
H2       0.20734    0.68210    -0.00103   1.00
N1       0.16388    0.72634    -0.00292   1.00
C6       0.14080    0.75309    -0.02012   1.00
C6       0.15521    0.72614    0.03540   1.00
C6       0.11734    0.77046    0.00757   1.00
C6       0.12653    0.75333    0.04289   1.00
H3       0.14109    0.75984    -0.05099   1.00
H3       0.16920    0.70769    0.05691   1.00
H3       0.09591    0.79307    0.00259   1.00
H3       0.11378    0.75994    0.07097   1.00
C4       0.75010    0.25002    0.47915   1.00
C4       0.74990    0.24998    0.52085   1.00
C3       0.76692    0.28047    0.45708   1.00
C3       0.77647    0.22688    0.54225   1.00
C3       0.73310    0.21888    0.45816   1.00
C3a      0.72332    0.27358    0.54263   1.00
C2       0.74901    0.24887    0.39483   1.00
C2       0.75118    0.25087    0.60517   1.00
C3       0.76633    0.27985    0.41566   1.00
C3       0.77706    0.22738    0.58359   1.00
C3       0.73242    0.21842    0.41680   1.00
C3       0.72447    0.27375    0.58415   1.00
H1       0.78052    0.30482    0.47192   1.00
H1       0.79710    0.20854    0.52685   1.00
H1       0.77945    0.30373    0.39968   1.00
H1       0.79795    0.20933    0.59895   1.00
H1       0.71862    0.19429    0.40179   1.00
H1       0.70414    0.29162    0.60043   1.00
C5       0.69281    0.29831    0.52239   1.00
H1       0.71933    0.19527    0.47401   1.00
H2       0.67750    0.31755    0.54354   1.00
H2       0.70734    0.31790    0.50103   1.00
N1       0.66388    0.27366    0.50292   1.00
C6       0.64080    0.24691    0.52012   1.00
C6       0.65521    0.27386    0.46460   1.00
C6       0.61734    0.22954    0.49243   1.00
C6       0.62653    0.24667    0.45711   1.00
H3       0.64109    0.24016    0.55099   1.00
H3       0.66920    0.29231    0.44309   1.00
H3       0.59591    0.20693    0.49741   1.00
H3       0.61378    0.24006    0.42903   1.00
C4       0.75002    0.47915    0.25010   1.00
C4       0.74998    0.52085    0.24990   1.00
C3       0.78047    0.45708    0.26692   1.00
C3       0.72688    0.54225    0.27647   1.00
C3       0.71888    0.45816    0.23310   1.00
C3a      0.77358    0.54263    0.22332   1.00
C2       0.74887    0.39483    0.24901   1.00
C2       0.75087    0.60517    0.25118   1.00
C3       0.77985    0.41566    0.26633   1.00
C3       0.72738    0.58359    0.27706   1.00
C3       0.71842    0.41680    0.23242   1.00
C3       0.77375    0.58415    0.22447   1.00
H1       0.80482    0.47192    0.28052   1.00
H1       0.70854    0.52685    0.29710   1.00
H1       0.80373    0.39968    0.27945   1.00
H1       0.70933    0.59895    0.29795   1.00
H1       0.69429    0.40179    0.21862   1.00
H1       0.79162    0.60043    0.20414   1.00
C5       0.79831    0.52239    0.19281   1.00
H1       0.69527    0.47401    0.21933   1.00
H2       0.81755    0.54354    0.17750   1.00
H2       0.81790    0.50103    0.20734   1.00
N1       0.77366    0.50292    0.16388   1.00
C6       0.74691    0.52012    0.14080   1.00
C6       0.77386    0.46460    0.15521   1.00
C6       0.72954    0.49243    0.11734   1.00
C6       0.74667    0.45711    0.12653   1.00
H3       0.74016    0.55099    0.14109   1.00
H3       0.79231    0.44309    0.16920   1.00
H3       0.70693    0.49741    0.09591   1.00
H3       0.74006    0.42903    0.11378   1.00
C4       0.52085    0.25010    0.24998   1.00
C4       0.47915    0.24990    0.25002   1.00
C3       0.54292    0.26692    0.21953   1.00
C3       0.45775    0.27647    0.27312   1.00
C3       0.54184    0.23310    0.28112   1.00
C3a      0.45737    0.22332    0.22642   1.00
C2       0.60517    0.24901    0.25113   1.00
C2       0.39483    0.25118    0.24913   1.00
C3       0.58434    0.26633    0.22015   1.00
C3       0.41641    0.27706    0.27262   1.00
C3       0.58320    0.23242    0.28158   1.00
C3       0.41585    0.22447    0.22625   1.00
H1       0.52808    0.28052    0.19518   1.00
H1       0.47315    0.29710    0.29146   1.00
H1       0.60032    0.27945    0.19627   1.00
H1       0.40105    0.29795    0.29067   1.00
H1       0.59821    0.21862    0.30571   1.00
H1       0.39957    0.20414    0.20838   1.00
C5       0.47761    0.19281    0.20169   1.00
H1       0.52599    0.21933    0.30473   1.00
H2       0.45646    0.17750    0.18245   1.00
H2       0.49897    0.20734    0.18210   1.00
N1       0.49708    0.16388    0.22634   1.00
C6       0.47988    0.14080    0.25309   1.00
C6       0.53540    0.15521    0.22614   1.00
C6       0.50757    0.11734    0.27046   1.00
C6       0.54289    0.12653    0.25333   1.00
H3       0.44901    0.14109    0.25984   1.00
H3       0.55691    0.16920    0.20769   1.00
H3       0.50259    0.09591    0.29307   1.00
H3       0.57097    0.11378    0.25994   1.00
C4       0.97915    0.25010    0.25002   1.00
C4       1.02085    0.24990    0.24998   1.00
C3       0.95708    0.26692    0.28047   1.00
C3       1.04225    0.27647    0.22688   1.00
C3       0.95816    0.23310    0.21888   1.00
C3a      1.04263    0.22332    0.27358   1.00
C2       0.89483    0.24901    0.24887   1.00
C2       1.10517    0.25118    0.25087   1.00
C3       0.91566    0.26633    0.27985   1.00
C3       1.08359    0.27706    0.22738   1.00
C3       0.91680    0.23242    0.21842   1.00
C3       1.08415    0.22447    0.27375   1.00
H1       0.97192    0.28052    0.30482   1.00
H1       1.02685    0.29710    0.20854   1.00
H1       0.89968    0.27945    0.30373   1.00
H1       1.09895    0.29795    0.20933   1.00
H1       0.90179    0.21862    0.19429   1.00
H1       1.10043    0.20414    0.29162   1.00
C5       1.02239    0.19281    0.29831   1.00
H1       0.97401    0.21933    0.19527   1.00
H2       1.04354    0.17750    0.31755   1.00
H2       1.00103    0.20734    0.31790   1.00
N1       1.00292    0.16388    0.27366   1.00
C6       1.02012    0.14080    0.24691   1.00
C6       0.96460    0.15521    0.27386   1.00
C6       0.99243    0.11734    0.22954   1.00
C6       0.95711    0.12653    0.24667   1.00
H3       1.05099    0.14109    0.24016   1.00
H3       0.94309    0.16920    0.29231   1.00
H3       0.99741    0.09591    0.20693   1.00
H3       0.92903    0.11378    0.24006   1.00
C4       0.74998    0.02085    0.25010   1.00
C4       0.75002    -0.02085   0.24990   1.00
C3       0.71953    0.04292    0.26692   1.00
C3       0.77312    -0.04225   0.27647   1.00
C3       0.78112    0.04184    0.23310   1.00
C3a      0.72642    -0.04263   0.22332   1.00
C2       0.75113    0.10517    0.24901   1.00
C2       0.74913    -0.10517   0.25118   1.00
C3       0.72015    0.08434    0.26633   1.00
C3       0.77262    -0.08359   0.27706   1.00
C3       0.78158    0.08320    0.23242   1.00
C3       0.72625    -0.08415   0.22447   1.00
H1       0.69518    0.02808    0.28052   1.00
H1       0.79146    -0.02685   0.29710   1.00
H1       0.69627    0.10032    0.27945   1.00
H1       0.79067    -0.09895   0.29795   1.00
H1       0.80571    0.09821    0.21862   1.00
H1       0.70838    -0.10043   0.20414   1.00
C5       0.70169    -0.02239   0.19281   1.00
H1       0.80473    0.02599    0.21933   1.00
H2       0.68245    -0.04354   0.17750   1.00
H2       0.68210    -0.00103   0.20734   1.00
N1       0.72634    -0.00292   0.16388   1.00
C6       0.75309    -0.02012   0.14080   1.00
C6       0.72614    0.03540    0.15521   1.00
C6       0.77046    0.00757    0.11734   1.00
C6       0.75333    0.04289    0.12653   1.00
H3       0.75984    -0.05099   0.14109   1.00
H3       0.70769    0.05691    0.16920   1.00
H3       0.79307    0.00259    0.09591   1.00
H3       0.75994    0.07097    0.11378   1.00
C4       0.75010    0.24998    0.02085   1.00
C4       0.74990    0.25002    -0.02085   1.00
C3       0.76692    0.21953    0.04292   1.00
C3       0.77647    0.27312    -0.04225   1.00
C3       0.73310    0.28112    0.04184   1.00
C3a      0.72332    0.22642    -0.04263   1.00
C2       0.74901    0.25113    0.10517   1.00
C2       0.75118    0.24913    -0.10517   1.00
C3       0.76633    0.22015    0.08434   1.00
C3       0.77706    0.27262    -0.08359   1.00
C3       0.73242    0.28158    0.08320   1.00
C3       0.72447    0.22625    -0.08415   1.00
H1       0.78052    0.19518    0.02808   1.00
H1       0.79710    0.29146    -0.02685   1.00
H1       0.77945    0.19627    0.10032   1.00
H1       0.79795    0.29067    -0.09895   1.00
H1       0.71862    0.30571    0.09821   1.00
H1       0.70414    0.20838    -0.10043   1.00
C5       0.69281    0.20169    -0.02239   1.00
H1       0.71933    0.30473    0.02599   1.00
H2       0.67750    0.18245    -0.04354   1.00
H2       0.70734    0.18210    -0.00103   1.00
N1       0.66388    0.22634    -0.00292   1.00
C6       0.64080    0.25309    -0.02012   1.00
C6       0.65521    0.22614    0.03540   1.00
C6       0.61734    0.27046    0.00757   1.00
C6       0.62653    0.25333    0.04289   1.00
H3       0.64109    0.25984    -0.05099   1.00
H3       0.66920    0.20769    0.05691   1.00
H3       0.59591    0.29307    0.00259   1.00
H3       0.61378    0.25994    0.07097   1.00
C4       0.91510    0.91502    1.14415   1.00
C4       0.91490    0.91498    1.18585   1.00
C3       0.93192    0.94547    1.12208   1.00
C3       0.94147    0.89188    1.20725   1.00
C3       0.89810    0.88388    1.12316   1.00
C3a      0.88832    0.93858    1.20763   1.00
C2       0.91401    0.91387    1.05983   1.00
C2       0.91618    0.91587    1.27017   1.00
C3       0.93133    0.94485    1.08066   1.00
C3       0.94206    0.89238    1.24859   1.00
C3       0.89742    0.88342    1.08180   1.00
C3       0.88947    0.93875    1.24915   1.00
H1       0.94552    0.96982    1.13692   1.00
H1       0.96210    0.87354    1.19185   1.00
H1       0.94445    0.96873    1.06468   1.00
H1       0.96295    0.87433    1.26395   1.00
H1       0.88362    0.85929    1.06679   1.00
H1       0.86914    0.95662    1.26543   1.00
C5       0.85781    0.96331    1.18739   1.00
H1       0.88433    0.86027    1.13901   1.00
H2       0.84250    0.98255    1.20854   1.00
H2       0.87234    0.98290    1.16603   1.00
N1       0.82888    0.93866    1.16792   1.00
C6       0.80580    0.91191    1.18512   1.00
C6       0.82021    0.93886    1.12960   1.00
C6       0.78234    0.89454    1.15743   1.00
C6       0.79153    0.91167    1.12211   1.00
H3       0.80609    0.90516    1.21599   1.00
H3       0.83420    0.95731    1.10809   1.00
H3       0.76091    0.87193    1.16241   1.00
H3       0.77878    0.90506    1.09403   1.00
C4       0.91502    1.14415    0.91510   1.00
C4       0.91498    1.18585    0.91490   1.00
C3       0.94547    1.12208    0.93192   1.00
C3       0.89188    1.20725    0.94147   1.00
C3       0.88388    1.12316    0.89810   1.00
C3a      0.93858    1.20763    0.88832   1.00
C2       0.91387    1.05983    0.91401   1.00
C2       0.91587    1.27017    0.91618   1.00
C3       0.94485    1.08066    0.93133   1.00
C3       0.89238    1.24859    0.94206   1.00
C3       0.88342    1.08180    0.89742   1.00
C3       0.93875    1.24915    0.88947   1.00
H1       0.96982    1.13692    0.94552   1.00
H1       0.87354    1.19185    0.96210   1.00
H1       0.96873    1.06468    0.94445   1.00
H1       0.87433    1.26395    0.96295   1.00
H1       0.85929    1.06679    0.88362   1.00
H1       0.95662    1.26543    0.86914   1.00
C5       0.96331    1.18739    0.85781   1.00
H1       0.86027    1.13901    0.88433   1.00
H2       0.98255    1.20854    0.84250   1.00
H2       0.98290    1.16603    0.87234   1.00
N1       0.93866    1.16792    0.82888   1.00
C6       0.91191    1.18512    0.80580   1.00
C6       0.93886    1.12960    0.82021   1.00
C6       0.89454    1.15743    0.78234   1.00
C6       0.91167    1.12211    0.79153   1.00
H3       0.90516    1.21599    0.80609   1.00
H3       0.95731    1.10809    0.83420   1.00
H3       0.87193    1.16241    0.76091   1.00
H3       0.90506    1.09403    0.77878   1.00
C4       0.68585    0.91510    0.91498   1.00
C4       0.64415    0.91490    0.91502   1.00
C3       0.70792    0.93192    0.88453   1.00
C3       0.62275    0.94147    0.93812   1.00
C3       0.70684    0.89810    0.94612   1.00
C3a      0.62237    0.88832    0.89142   1.00
C2       0.77017    0.91401    0.91613   1.00
C2       0.55983    0.91618    0.91413   1.00
C3       0.74934    0.93133    0.88515   1.00
C3       0.58141    0.94206    0.93762   1.00
C3       0.74820    0.89742    0.94658   1.00
C3       0.58085    0.88947    0.89125   1.00
H1       0.69308    0.94552    0.86018   1.00
H1       0.63815    0.96210    0.95646   1.00
H1       0.76532    0.94445    0.86127   1.00
H1       0.56605    0.96295    0.95567   1.00
H1       0.76321    0.88362    0.97071   1.00
H1       0.56457    0.86914    0.87338   1.00
C5       0.64261    0.85781    0.86669   1.00
H1       0.69099    0.88433    0.96973   1.00
H2       0.62146    0.84250    0.84745   1.00
H2       0.66397    0.87234    0.84710   1.00
N1       0.66208    0.82888    0.89134   1.00
C6       0.64488    0.80580    0.91809   1.00
C6       0.70040    0.82021    0.89114   1.00
C6       0.67257    0.78234    0.93546   1.00
C6       0.70789    0.79153    0.91833   1.00
H3       0.61401    0.80609    0.92484   1.00
H3       0.72191    0.83420    0.87269   1.00
H3       0.66759    0.76091    0.95807   1.00
H3       0.73597    0.77878    0.92494   1.00
C4       1.14415    0.91510    0.91502   1.00
C4       1.18585    0.91490    0.91498   1.00
C3       1.12208    0.93192    0.94547   1.00
C3       1.20725    0.94147    0.89188   1.00
C3       1.12316    0.89810    0.88388   1.00
C3a      1.20763    0.88832    0.93858   1.00
C2       1.05983    0.91401    0.91387   1.00
C2       1.27017    0.91618    0.91587   1.00
C3       1.08066    0.93133    0.94485   1.00
C3       1.24859    0.94206    0.89238   1.00
C3       1.08180    0.89742    0.88342   1.00
C3       1.24915    0.88947    0.93875   1.00
H1       1.13692    0.94552    0.96982   1.00
H1       1.19185    0.96210    0.87354   1.00
H1       1.06468    0.94445    0.96873   1.00
H1       1.26395    0.96295    0.87433   1.00
H1       1.06679    0.88362    0.85929   1.00
H1       1.26543    0.86914    0.95662   1.00
C5       1.18739    0.85781    0.96331   1.00
H1       1.13901    0.88433    0.86027   1.00
H2       1.20854    0.84250    0.98255   1.00
H2       1.16603    0.87234    0.98290   1.00
N1       1.16792    0.82888    0.93866   1.00
C6       1.18512    0.80580    0.91191   1.00
C6       1.12960    0.82021    0.93886   1.00
C6       1.15743    0.78234    0.89454   1.00
C6       1.12211    0.79153    0.91167   1.00
H3       1.21599    0.80609    0.90516   1.00
H3       1.10809    0.83420    0.95731   1.00
H3       1.16241    0.76091    0.87193   1.00
H3       1.09403    0.77878    0.90506   1.00
C4       0.91498    0.68585    0.91510   1.00
C4       0.91502    0.64415    0.91490   1.00
C3       0.88453    0.70792    0.93192   1.00
C3       0.93812    0.62275    0.94147   1.00
C3       0.94612    0.70684    0.89810   1.00
C3a      0.89142    0.62237    0.88832   1.00
C2       0.91613    0.77017    0.91401   1.00
C2       0.91413    0.55983    0.91618   1.00
C3       0.88515    0.74934    0.93133   1.00
C3       0.93762    0.58141    0.94206   1.00
C3       0.94658    0.74820    0.89742   1.00
C3       0.89125    0.58085    0.88947   1.00
H1       0.86018    0.69308    0.94552   1.00
H1       0.95646    0.63815    0.96210   1.00
H1       0.86127    0.76532    0.94445   1.00
H1       0.95567    0.56605    0.96295   1.00
H1       0.97071    0.76321    0.88362   1.00
H1       0.87338    0.56457    0.86914   1.00
C5       0.86669    0.64261    0.85781   1.00
H1       0.96973    0.69099    0.88433   1.00
H2       0.84745    0.62146    0.84250   1.00
H2       0.84710    0.66397    0.87234   1.00
N1       0.89134    0.66208    0.82888   1.00
C6       0.91809    0.64488    0.80580   1.00
C6       0.89114    0.70040    0.82021   1.00
C6       0.93546    0.67257    0.78234   1.00
C6       0.91833    0.70789    0.79153   1.00
H3       0.92484    0.61401    0.80609   1.00
H3       0.87269    0.72191    0.83420   1.00
H3       0.95807    0.66759    0.76091   1.00
H3       0.92494    0.73597    0.77878   1.00
C4       0.91510    0.91498    0.68585   1.00
C4       0.91490    0.91502    0.64415   1.00
C3       0.93192    0.88453    0.70792   1.00
C3       0.94147    0.93812    0.62275   1.00
C3       0.89810    0.94612    0.70684   1.00
C3a      0.88832    0.89142    0.62237   1.00
C2       0.91401    0.91613    0.77017   1.00
C2       0.91618    0.91413    0.55983   1.00
C3       0.93133    0.88515    0.74934   1.00
C3       0.94206    0.93762    0.58141   1.00
C3       0.89742    0.94658    0.74820   1.00
C3       0.88947    0.89125    0.58085   1.00
H1       0.94552    0.86018    0.69308   1.00
H1       0.96210    0.95646    0.63815   1.00
H1       0.94445    0.86127    0.76532   1.00
H1       0.96295    0.95567    0.56605   1.00
H1       0.88362    0.97071    0.76321   1.00
H1       0.86914    0.87338    0.56457   1.00
C5       0.85781    0.86669    0.64261   1.00
H1       0.88433    0.96973    0.69099   1.00
H2       0.84250    0.84745    0.62146   1.00
H2       0.87234    0.84710    0.66397   1.00
N1       0.82888    0.89134    0.66208   1.00
C6       0.80580    0.91809    0.64488   1.00
C6       0.82021    0.89114    0.70040   1.00
C6       0.78234    0.93546    0.67257   1.00
C6       0.79153    0.91833    0.70789   1.00
H3       0.80609    0.92484    0.61401   1.00
H3       0.83420    0.87269    0.72191   1.00
H3       0.76091    0.95807    0.66759   1.00
H3       0.77878    0.92494    0.73597   1.00
C4       0.41510    0.41502    1.14415   1.00
C4       0.41490    0.41498    1.18585   1.00
C3       0.43192    0.44547    1.12208   1.00
C3       0.44147    0.39188    1.20725   1.00
C3       0.39810    0.38388    1.12316   1.00
C3a      0.38832    0.43858    1.20763   1.00
C2       0.41401    0.41387    1.05983   1.00
C2       0.41618    0.41587    1.27017   1.00
C3       0.43133    0.44485    1.08066   1.00
C3       0.44206    0.39238    1.24859   1.00
C3       0.39742    0.38342    1.08180   1.00
C3       0.38947    0.43875    1.24915   1.00
H1       0.44552    0.46982    1.13692   1.00
H1       0.46210    0.37354    1.19185   1.00
H1       0.44445    0.46873    1.06468   1.00
H1       0.46295    0.37433    1.26395   1.00
H1       0.38362    0.35929    1.06679   1.00
H1       0.36914    0.45662    1.26543   1.00
C5       0.35781    0.46331    1.18739   1.00
H1       0.38433    0.36027    1.13901   1.00
H2       0.34250    0.48255    1.20854   1.00
H2       0.37234    0.48290    1.16603   1.00
N1       0.32888    0.43866    1.16792   1.00
C6       0.30580    0.41191    1.18512   1.00
C6       0.32021    0.43886    1.12960   1.00
C6       0.28234    0.39454    1.15743   1.00
C6       0.29153    0.41167    1.12211   1.00
H3       0.30609    0.40516    1.21599   1.00
H3       0.33420    0.45731    1.10809   1.00
H3       0.26091    0.37193    1.16241   1.00
H3       0.27878    0.40506    1.09403   1.00
C4       0.41502    0.64415    0.91510   1.00
C4       0.41498    0.68585    0.91490   1.00
C3       0.44547    0.62208    0.93192   1.00
C3       0.39188    0.70725    0.94147   1.00
C3       0.38388    0.62316    0.89810   1.00
C3a      0.43858    0.70763    0.88832   1.00
C2       0.41387    0.55983    0.91401   1.00
C2       0.41587    0.77017    0.91618   1.00
C3       0.44485    0.58066    0.93133   1.00
C3       0.39238    0.74859    0.94206   1.00
C3       0.38342    0.58180    0.89742   1.00
C3       0.43875    0.74915    0.88947   1.00
H1       0.46982    0.63692    0.94552   1.00
H1       0.37354    0.69185    0.96210   1.00
H1       0.46873    0.56468    0.94445   1.00
H1       0.37433    0.76395    0.96295   1.00
H1       0.35929    0.56679    0.88362   1.00
H1       0.45662    0.76543    0.86914   1.00
C5       0.46331    0.68739    0.85781   1.00
H1       0.36027    0.63901    0.88433   1.00
H2       0.48255    0.70854    0.84250   1.00
H2       0.48290    0.66603    0.87234   1.00
N1       0.43866    0.66792    0.82888   1.00
C6       0.41191    0.68512    0.80580   1.00
C6       0.43886    0.62960    0.82021   1.00
C6       0.39454    0.65743    0.78234   1.00
C6       0.41167    0.62211    0.79153   1.00
H3       0.40516    0.71599    0.80609   1.00
H3       0.45731    0.60809    0.83420   1.00
H3       0.37193    0.66241    0.76091   1.00
H3       0.40506    0.59403    0.77878   1.00
C4       0.18585    0.41510    0.91498   1.00
C4       0.14415    0.41490    0.91502   1.00
C3       0.20792    0.43192    0.88453   1.00
C3       0.12275    0.44147    0.93812   1.00
C3       0.20684    0.39810    0.94612   1.00
C3a      0.12237    0.38832    0.89142   1.00
C2       0.27017    0.41401    0.91613   1.00
C2       0.05983    0.41618    0.91413   1.00
C3       0.24934    0.43133    0.88515   1.00
C3       0.08141    0.44206    0.93762   1.00
C3       0.24820    0.39742    0.94658   1.00
C3       0.08085    0.38947    0.89125   1.00
H1       0.19308    0.44552    0.86018   1.00
H1       0.13815    0.46210    0.95646   1.00
H1       0.26532    0.44445    0.86127   1.00
H1       0.06605    0.46295    0.95567   1.00
H1       0.26321    0.38362    0.97071   1.00
H1       0.06457    0.36914    0.87338   1.00
C5       0.14261    0.35781    0.86669   1.00
H1       0.19099    0.38433    0.96973   1.00
H2       0.12146    0.34250    0.84745   1.00
H2       0.16397    0.37234    0.84710   1.00
N1       0.16208    0.32888    0.89134   1.00
C6       0.14488    0.30580    0.91809   1.00
C6       0.20040    0.32021    0.89114   1.00
C6       0.17257    0.28234    0.93546   1.00
C6       0.20789    0.29153    0.91833   1.00
H3       0.11401    0.30609    0.92484   1.00
H3       0.22191    0.33420    0.87269   1.00
H3       0.16759    0.26091    0.95807   1.00
H3       0.23597    0.27878    0.92494   1.00
C4       0.64415    0.41510    0.91502   1.00
C4       0.68585    0.41490    0.91498   1.00
C3       0.62208    0.43192    0.94547   1.00
C3       0.70725    0.44147    0.89188   1.00
C3       0.62316    0.39810    0.88388   1.00
C3a      0.70763    0.38832    0.93858   1.00
C2       0.55983    0.41401    0.91387   1.00
C2       0.77017    0.41618    0.91587   1.00
C3       0.58066    0.43133    0.94485   1.00
C3       0.74859    0.44206    0.89238   1.00
C3       0.58180    0.39742    0.88342   1.00
C3       0.74915    0.38947    0.93875   1.00
H1       0.63692    0.44552    0.96982   1.00
H1       0.69185    0.46210    0.87354   1.00
H1       0.56468    0.44445    0.96873   1.00
H1       0.76395    0.46295    0.87433   1.00
H1       0.56679    0.38362    0.85929   1.00
H1       0.76543    0.36914    0.95662   1.00
C5       0.68739    0.35781    0.96331   1.00
H1       0.63901    0.38433    0.86027   1.00
H2       0.70854    0.34250    0.98255   1.00
H2       0.66603    0.37234    0.98290   1.00
N1       0.66792    0.32888    0.93866   1.00
C6       0.68512    0.30580    0.91191   1.00
C6       0.62960    0.32021    0.93886   1.00
C6       0.65743    0.28234    0.89454   1.00
C6       0.62211    0.29153    0.91167   1.00
H3       0.71599    0.30609    0.90516   1.00
H3       0.60809    0.33420    0.95731   1.00
H3       0.66241    0.26091    0.87193   1.00
H3       0.59403    0.27878    0.90506   1.00
C4       0.41498    0.18585    0.91510   1.00
C4       0.41502    0.14415    0.91490   1.00
C3       0.38453    0.20792    0.93192   1.00
C3       0.43812    0.12275    0.94147   1.00
C3       0.44612    0.20684    0.89810   1.00
C3a      0.39142    0.12237    0.88832   1.00
C2       0.41613    0.27017    0.91401   1.00
C2       0.41413    0.05983    0.91618   1.00
C3       0.38515    0.24934    0.93133   1.00
C3       0.43762    0.08141    0.94206   1.00
C3       0.44658    0.24820    0.89742   1.00
C3       0.39125    0.08085    0.88947   1.00
H1       0.36018    0.19308    0.94552   1.00
H1       0.45646    0.13815    0.96210   1.00
H1       0.36127    0.26532    0.94445   1.00
H1       0.45567    0.06605    0.96295   1.00
H1       0.47071    0.26321    0.88362   1.00
H1       0.37338    0.06457    0.86914   1.00
C5       0.36669    0.14261    0.85781   1.00
H1       0.46973    0.19099    0.88433   1.00
H2       0.34745    0.12146    0.84250   1.00
H2       0.34710    0.16397    0.87234   1.00
N1       0.39134    0.16208    0.82888   1.00
C6       0.41809    0.14488    0.80580   1.00
C6       0.39114    0.20040    0.82021   1.00
C6       0.43546    0.17257    0.78234   1.00
C6       0.41833    0.20789    0.79153   1.00
H3       0.42484    0.11401    0.80609   1.00
H3       0.37269    0.22191    0.83420   1.00
H3       0.45807    0.16759    0.76091   1.00
H3       0.42494    0.23597    0.77878   1.00
C4       0.41510    0.41498    0.68585   1.00
C4       0.41490    0.41502    0.64415   1.00
C3       0.43192    0.38453    0.70792   1.00
C3       0.44147    0.43812    0.62275   1.00
C3       0.39810    0.44612    0.70684   1.00
C3a      0.38832    0.39142    0.62237   1.00
C2       0.41401    0.41613    0.77017   1.00
C2       0.41618    0.41413    0.55983   1.00
C3       0.43133    0.38515    0.74934   1.00
C3       0.44206    0.43762    0.58141   1.00
C3       0.39742    0.44658    0.74820   1.00
C3       0.38947    0.39125    0.58085   1.00
H1       0.44552    0.36018    0.69308   1.00
H1       0.46210    0.45646    0.63815   1.00
H1       0.44445    0.36127    0.76532   1.00
H1       0.46295    0.45567    0.56605   1.00
H1       0.38362    0.47071    0.76321   1.00
H1       0.36914    0.37338    0.56457   1.00
C5       0.35781    0.36669    0.64261   1.00
H1       0.38433    0.46973    0.69099   1.00
H2       0.34250    0.34745    0.62146   1.00
H2       0.37234    0.34710    0.66397   1.00
N1       0.32888    0.39134    0.66208   1.00
C6       0.30580    0.41809    0.64488   1.00
C6       0.32021    0.39114    0.70040   1.00
C6       0.28234    0.43546    0.67257   1.00
C6       0.29153    0.41833    0.70789   1.00
H3       0.30609    0.42484    0.61401   1.00
H3       0.33420    0.37269    0.72191   1.00
H3       0.26091    0.45807    0.66759   1.00
H3       0.27878    0.42494    0.73597   1.00
C4       0.41510    0.91502    0.64415   1.00
C4       0.41490    0.91498    0.68585   1.00
C3       0.43192    0.94547    0.62208   1.00
C3       0.44147    0.89188    0.70725   1.00
C3       0.39810    0.88388    0.62316   1.00
C3a      0.38832    0.93858    0.70763   1.00
C2       0.41401    0.91387    0.55983   1.00
C2       0.41618    0.91587    0.77017   1.00
C3       0.43133    0.94485    0.58066   1.00
C3       0.44206    0.89238    0.74859   1.00
C3       0.39742    0.88342    0.58180   1.00
C3       0.38947    0.93875    0.74915   1.00
H1       0.44552    0.96982    0.63692   1.00
H1       0.46210    0.87354    0.69185   1.00
H1       0.44445    0.96873    0.56468   1.00
H1       0.46295    0.87433    0.76395   1.00
H1       0.38362    0.85929    0.56679   1.00
H1       0.36914    0.95662    0.76543   1.00
C5       0.35781    0.96331    0.68739   1.00
H1       0.38433    0.86027    0.63901   1.00
H2       0.34250    0.98255    0.70854   1.00
H2       0.37234    0.98290    0.66603   1.00
N1       0.32888    0.93866    0.66792   1.00
C6       0.30580    0.91191    0.68512   1.00
C6       0.32021    0.93886    0.62960   1.00
C6       0.28234    0.89454    0.65743   1.00
C6       0.29153    0.91167    0.62211   1.00
H3       0.30609    0.90516    0.71599   1.00
H3       0.33420    0.95731    0.60809   1.00
H3       0.26091    0.87193    0.66241   1.00
H3       0.27878    0.90506    0.59403   1.00
C4       0.41502    1.14415    0.41510   1.00
C4       0.41498    1.18585    0.41490   1.00
C3       0.44547    1.12208    0.43192   1.00
C3       0.39188    1.20725    0.44147   1.00
C3       0.38388    1.12316    0.39810   1.00
C3a      0.43858    1.20763    0.38832   1.00
C2       0.41387    1.05983    0.41401   1.00
C2       0.41587    1.27017    0.41618   1.00
C3       0.44485    1.08066    0.43133   1.00
C3       0.39238    1.24859    0.44206   1.00
C3       0.38342    1.08180    0.39742   1.00
C3       0.43875    1.24915    0.38947   1.00
H1       0.46982    1.13692    0.44552   1.00
H1       0.37354    1.19185    0.46210   1.00
H1       0.46873    1.06468    0.44445   1.00
H1       0.37433    1.26395    0.46295   1.00
H1       0.35929    1.06679    0.38362   1.00
H1       0.45662    1.26543    0.36914   1.00
C5       0.46331    1.18739    0.35781   1.00
H1       0.36027    1.13901    0.38433   1.00
H2       0.48255    1.20854    0.34250   1.00
H2       0.48290    1.16603    0.37234   1.00
N1       0.43866    1.16792    0.32888   1.00
C6       0.41191    1.18512    0.30580   1.00
C6       0.43886    1.12960    0.32021   1.00
C6       0.39454    1.15743    0.28234   1.00
C6       0.41167    1.12211    0.29153   1.00
H3       0.40516    1.21599    0.30609   1.00
H3       0.45731    1.10809    0.33420   1.00
H3       0.37193    1.16241    0.26091   1.00
H3       0.40506    1.09403    0.27878   1.00
C4       0.18585    0.91510    0.41498   1.00
C4       0.14415    0.91490    0.41502   1.00
C3       0.20792    0.93192    0.38453   1.00
C3       0.12275    0.94147    0.43812   1.00
C3       0.20684    0.89810    0.44612   1.00
C3a      0.12237    0.88832    0.39142   1.00
C2       0.27017    0.91401    0.41613   1.00
C2       0.05983    0.91618    0.41413   1.00
C3       0.24934    0.93133    0.38515   1.00
C3       0.08141    0.94206    0.43762   1.00
C3       0.24820    0.89742    0.44658   1.00
C3       0.08085    0.88947    0.39125   1.00
H1       0.19308    0.94552    0.36018   1.00
H1       0.13815    0.96210    0.45646   1.00
H1       0.26532    0.94445    0.36127   1.00
H1       0.06605    0.96295    0.45567   1.00
H1       0.26321    0.88362    0.47071   1.00
H1       0.06457    0.86914    0.37338   1.00
C5       0.14261    0.85781    0.36669   1.00
H1       0.19099    0.88433    0.46973   1.00
H2       0.12146    0.84250    0.34745   1.00
H2       0.16397    0.87234    0.34710   1.00
N1       0.16208    0.82888    0.39134   1.00
C6       0.14488    0.80580    0.41809   1.00
C6       0.20040    0.82021    0.39114   1.00
C6       0.17257    0.78234    0.43546   1.00
C6       0.20789    0.79153    0.41833   1.00
H3       0.11401    0.80609    0.42484   1.00
H3       0.22191    0.83420    0.37269   1.00
H3       0.16759    0.76091    0.45807   1.00
H3       0.23597    0.77878    0.42494   1.00
C4       0.64415    0.91510    0.41502   1.00
C4       0.68585    0.91490    0.41498   1.00
C3       0.62208    0.93192    0.44547   1.00
C3       0.70725    0.94147    0.39188   1.00
C3       0.62316    0.89810    0.38388   1.00
C3a      0.70763    0.88832    0.43858   1.00
C2       0.55983    0.91401    0.41387   1.00
C2       0.77017    0.91618    0.41587   1.00
C3       0.58066    0.93133    0.44485   1.00
C3       0.74859    0.94206    0.39238   1.00
C3       0.58180    0.89742    0.38342   1.00
C3       0.74915    0.88947    0.43875   1.00
H1       0.63692    0.94552    0.46982   1.00
H1       0.69185    0.96210    0.37354   1.00
H1       0.56468    0.94445    0.46873   1.00
H1       0.76395    0.96295    0.37433   1.00
H1       0.56679    0.88362    0.35929   1.00
H1       0.76543    0.86914    0.45662   1.00
C5       0.68739    0.85781    0.46331   1.00
H1       0.63901    0.88433    0.36027   1.00
H2       0.70854    0.84250    0.48255   1.00
H2       0.66603    0.87234    0.48290   1.00
N1       0.66792    0.82888    0.43866   1.00
C6       0.68512    0.80580    0.41191   1.00
C6       0.62960    0.82021    0.43886   1.00
C6       0.65743    0.78234    0.39454   1.00
C6       0.62211    0.79153    0.41167   1.00
H3       0.71599    0.80609    0.40516   1.00
H3       0.60809    0.83420    0.45731   1.00
H3       0.66241    0.76091    0.37193   1.00
H3       0.59403    0.77878    0.40506   1.00
C4       0.41498    0.68585    0.41510   1.00
C4       0.41502    0.64415    0.41490   1.00
C3       0.38453    0.70792    0.43192   1.00
C3       0.43812    0.62275    0.44147   1.00
C3       0.44612    0.70684    0.39810   1.00
C3a      0.39142    0.62237    0.38832   1.00
C2       0.41613    0.77017    0.41401   1.00
C2       0.41413    0.55983    0.41618   1.00
C3       0.38515    0.74934    0.43133   1.00
C3       0.43762    0.58141    0.44206   1.00
C3       0.44658    0.74820    0.39742   1.00
C3       0.39125    0.58085    0.38947   1.00
H1       0.36018    0.69308    0.44552   1.00
H1       0.45646    0.63815    0.46210   1.00
H1       0.36127    0.76532    0.44445   1.00
H1       0.45567    0.56605    0.46295   1.00
H1       0.47071    0.76321    0.38362   1.00
H1       0.37338    0.56457    0.36914   1.00
C5       0.36669    0.64261    0.35781   1.00
H1       0.46973    0.69099    0.38433   1.00
H2       0.34745    0.62146    0.34250   1.00
H2       0.34710    0.66397    0.37234   1.00
N1       0.39134    0.66208    0.32888   1.00
C6       0.41809    0.64488    0.30580   1.00
C6       0.39114    0.70040    0.32021   1.00
C6       0.43546    0.67257    0.28234   1.00
C6       0.41833    0.70789    0.29153   1.00
H3       0.42484    0.61401    0.30609   1.00
H3       0.37269    0.72191    0.33420   1.00
H3       0.45807    0.66759    0.26091   1.00
H3       0.42494    0.73597    0.27878   1.00
C4       0.41510    0.91498    0.18585   1.00
C4       0.41490    0.91502    0.14415   1.00
C3       0.43192    0.88453    0.20792   1.00
C3       0.44147    0.93812    0.12275   1.00
C3       0.39810    0.94612    0.20684   1.00
C3a      0.38832    0.89142    0.12237   1.00
C2       0.41401    0.91613    0.27017   1.00
C2       0.41618    0.91413    0.05983   1.00
C3       0.43133    0.88515    0.24934   1.00
C3       0.44206    0.93762    0.08141   1.00
C3       0.39742    0.94658    0.24820   1.00
C3       0.38947    0.89125    0.08085   1.00
H1       0.44552    0.86018    0.19308   1.00
H1       0.46210    0.95646    0.13815   1.00
H1       0.44445    0.86127    0.26532   1.00
H1       0.46295    0.95567    0.06605   1.00
H1       0.38362    0.97071    0.26321   1.00
H1       0.36914    0.87338    0.06457   1.00
C5       0.35781    0.86669    0.14261   1.00
H1       0.38433    0.96973    0.19099   1.00
H2       0.34250    0.84745    0.12146   1.00
H2       0.37234    0.84710    0.16397   1.00
N1       0.32888    0.89134    0.16208   1.00
C6       0.30580    0.91809    0.14488   1.00
C6       0.32021    0.89114    0.20040   1.00
C6       0.28234    0.93546    0.17257   1.00
C6       0.29153    0.91833    0.20789   1.00
H3       0.30609    0.92484    0.11401   1.00
H3       0.33420    0.87269    0.22191   1.00
H3       0.26091    0.95807    0.16759   1.00
H3       0.27878    0.92494    0.23597   1.00
C4       0.91510    0.41502    0.64415   1.00
C4       0.91490    0.41498    0.68585   1.00
C3       0.93192    0.44547    0.62208   1.00
C3       0.94147    0.39188    0.70725   1.00
C3       0.89810    0.38388    0.62316   1.00
C3a      0.88832    0.43858    0.70763   1.00
C2       0.91401    0.41387    0.55983   1.00
C2       0.91618    0.41587    0.77017   1.00
C3       0.93133    0.44485    0.58066   1.00
C3       0.94206    0.39238    0.74859   1.00
C3       0.89742    0.38342    0.58180   1.00
C3       0.88947    0.43875    0.74915   1.00
H1       0.94552    0.46982    0.63692   1.00
H1       0.96210    0.37354    0.69185   1.00
H1       0.94445    0.46873    0.56468   1.00
H1       0.96295    0.37433    0.76395   1.00
H1       0.88362    0.35929    0.56679   1.00
H1       0.86914    0.45662    0.76543   1.00
C5       0.85781    0.46331    0.68739   1.00
H1       0.88433    0.36027    0.63901   1.00
H2       0.84250    0.48255    0.70854   1.00
H2       0.87234    0.48290    0.66603   1.00
N1       0.82888    0.43866    0.66792   1.00
C6       0.80580    0.41191    0.68512   1.00
C6       0.82021    0.43886    0.62960   1.00
C6       0.78234    0.39454    0.65743   1.00
C6       0.79153    0.41167    0.62211   1.00
H3       0.80609    0.40516    0.71599   1.00
H3       0.83420    0.45731    0.60809   1.00
H3       0.76091    0.37193    0.66241   1.00
H3       0.77878    0.40506    0.59403   1.00
C4       0.91502    0.64415    0.41510   1.00
C4       0.91498    0.68585    0.41490   1.00
C3       0.94547    0.62208    0.43192   1.00
C3       0.89188    0.70725    0.44147   1.00
C3       0.88388    0.62316    0.39810   1.00
C3a      0.93858    0.70763    0.38832   1.00
C2       0.91387    0.55983    0.41401   1.00
C2       0.91587    0.77017    0.41618   1.00
C3       0.94485    0.58066    0.43133   1.00
C3       0.89238    0.74859    0.44206   1.00
C3       0.88342    0.58180    0.39742   1.00
C3       0.93875    0.74915    0.38947   1.00
H1       0.96982    0.63692    0.44552   1.00
H1       0.87354    0.69185    0.46210   1.00
H1       0.96873    0.56468    0.44445   1.00
H1       0.87433    0.76395    0.46295   1.00
H1       0.85929    0.56679    0.38362   1.00
H1       0.95662    0.76543    0.36914   1.00
C5       0.96331    0.68739    0.35781   1.00
H1       0.86027    0.63901    0.38433   1.00
H2       0.98255    0.70854    0.34250   1.00
H2       0.98290    0.66603    0.37234   1.00
N1       0.93866    0.66792    0.32888   1.00
C6       0.91191    0.68512    0.30580   1.00
C6       0.93886    0.62960    0.32021   1.00
C6       0.89454    0.65743    0.28234   1.00
C6       0.91167    0.62211    0.29153   1.00
H3       0.90516    0.71599    0.30609   1.00
H3       0.95731    0.60809    0.33420   1.00
H3       0.87193    0.66241    0.26091   1.00
H3       0.90506    0.59403    0.27878   1.00
C4       0.68585    0.41510    0.41498   1.00
C4       0.64415    0.41490    0.41502   1.00
C3       0.70792    0.43192    0.38453   1.00
C3       0.62275    0.44147    0.43812   1.00
C3       0.70684    0.39810    0.44612   1.00
C3a      0.62237    0.38832    0.39142   1.00
C2       0.77017    0.41401    0.41613   1.00
C2       0.55983    0.41618    0.41413   1.00
C3       0.74934    0.43133    0.38515   1.00
C3       0.58141    0.44206    0.43762   1.00
C3       0.74820    0.39742    0.44658   1.00
C3       0.58085    0.38947    0.39125   1.00
H1       0.69308    0.44552    0.36018   1.00
H1       0.63815    0.46210    0.45646   1.00
H1       0.76532    0.44445    0.36127   1.00
H1       0.56605    0.46295    0.45567   1.00
H1       0.76321    0.38362    0.47071   1.00
H1       0.56457    0.36914    0.37338   1.00
C5       0.64261    0.35781    0.36669   1.00
H1       0.69099    0.38433    0.46973   1.00
H2       0.62146    0.34250    0.34745   1.00
H2       0.66397    0.37234    0.34710   1.00
N1       0.66208    0.32888    0.39134   1.00
C6       0.64488    0.30580    0.41809   1.00
C6       0.70040    0.32021    0.39114   1.00
C6       0.67257    0.28234    0.43546   1.00
C6       0.70789    0.29153    0.41833   1.00
H3       0.61401    0.30609    0.42484   1.00
H3       0.72191    0.33420    0.37269   1.00
H3       0.66759    0.26091    0.45807   1.00
H3       0.73597    0.27878    0.42494   1.00
C4       1.14415    0.41510    0.41502   1.00
C4       1.18585    0.41490    0.41498   1.00
C3       1.12208    0.43192    0.44547   1.00
C3       1.20725    0.44147    0.39188   1.00
C3       1.12316    0.39810    0.38388   1.00
C3a      1.20763    0.38832    0.43858   1.00
C2       1.05983    0.41401    0.41387   1.00
C2       1.27017    0.41618    0.41587   1.00
C3       1.08066    0.43133    0.44485   1.00
C3       1.24859    0.44206    0.39238   1.00
C3       1.08180    0.39742    0.38342   1.00
C3       1.24915    0.38947    0.43875   1.00
H1       1.13692    0.44552    0.46982   1.00
H1       1.19185    0.46210    0.37354   1.00
H1       1.06468    0.44445    0.46873   1.00
H1       1.26395    0.46295    0.37433   1.00
H1       1.06679    0.38362    0.35929   1.00
H1       1.26543    0.36914    0.45662   1.00
C5       1.18739    0.35781    0.46331   1.00
H1       1.13901    0.38433    0.36027   1.00
H2       1.20854    0.34250    0.48255   1.00
H2       1.16603    0.37234    0.48290   1.00
N1       1.16792    0.32888    0.43866   1.00
C6       1.18512    0.30580    0.41191   1.00
C6       1.12960    0.32021    0.43886   1.00
C6       1.15743    0.28234    0.39454   1.00
C6       1.12211    0.29153    0.41167   1.00
H3       1.21599    0.30609    0.40516   1.00
H3       1.10809    0.33420    0.45731   1.00
H3       1.16241    0.26091    0.37193   1.00
H3       1.09403    0.27878    0.40506   1.00
C4       0.91498    0.18585    0.41510   1.00
C4       0.91502    0.14415    0.41490   1.00
C3       0.88453    0.20792    0.43192   1.00
C3       0.93812    0.12275    0.44147   1.00
C3       0.94612    0.20684    0.39810   1.00
C3a      0.89142    0.12237    0.38832   1.00
C2       0.91613    0.27017    0.41401   1.00
C2       0.91413    0.05983    0.41618   1.00
C3       0.88515    0.24934    0.43133   1.00
C3       0.93762    0.08141    0.44206   1.00
C3       0.94658    0.24820    0.39742   1.00
C3       0.89125    0.08085    0.38947   1.00
H1       0.86018    0.19308    0.44552   1.00
H1       0.95646    0.13815    0.46210   1.00
H1       0.86127    0.26532    0.44445   1.00
H1       0.95567    0.06605    0.46295   1.00
H1       0.97071    0.26321    0.38362   1.00
H1       0.87338    0.06457    0.36914   1.00
C5       0.86669    0.14261    0.35781   1.00
H1       0.96973    0.19099    0.38433   1.00
H2       0.84745    0.12146    0.34250   1.00
H2       0.84710    0.16397    0.37234   1.00
N1       0.89134    0.16208    0.32888   1.00
C6       0.91809    0.14488    0.30580   1.00
C6       0.89114    0.20040    0.32021   1.00
C6       0.93546    0.17257    0.28234   1.00
C6       0.91833    0.20789    0.29153   1.00
H3       0.92484    0.11401    0.30609   1.00
H3       0.87269    0.22191    0.33420   1.00
H3       0.95807    0.16759    0.26091   1.00
H3       0.92494    0.23597    0.27878   1.00
C4       0.91510    0.41498    0.18585   1.00
C4       0.91490    0.41502    0.14415   1.00
C3       0.93192    0.38453    0.20792   1.00
C3       0.94147    0.43812    0.12275   1.00
C3       0.89810    0.44612    0.20684   1.00
C3a      0.88832    0.39142    0.12237   1.00
C2       0.91401    0.41613    0.27017   1.00
C2       0.91618    0.41413    0.05983   1.00
C3       0.93133    0.38515    0.24934   1.00
C3       0.94206    0.43762    0.08141   1.00
C3       0.89742    0.44658    0.24820   1.00
C3       0.88947    0.39125    0.08085   1.00
H1       0.94552    0.36018    0.19308   1.00
H1       0.96210    0.45646    0.13815   1.00
H1       0.94445    0.36127    0.26532   1.00
H1       0.96295    0.45567    0.06605   1.00
H1       0.88362    0.47071    0.26321   1.00
H1       0.86914    0.37338    0.06457   1.00
C5       0.85781    0.36669    0.14261   1.00
H1       0.88433    0.46973    0.19099   1.00
H2       0.84250    0.34745    0.12146   1.00
H2       0.87234    0.34710    0.16397   1.00
N1       0.82888    0.39134    0.16208   1.00
C6       0.80580    0.41809    0.14488   1.00
C6       0.82021    0.39114    0.20040   1.00
C6       0.78234    0.43546    0.17257   1.00
C6       0.79153    0.41833    0.20789   1.00
H3       0.80609    0.42484    0.11401   1.00
H3       0.83420    0.37269    0.22191   1.00
H3       0.76091    0.45807    0.16759   1.00
H3       0.77878    0.42494    0.23597   1.00
