data_IRMOF10_SG202_interpen_Ligand9cp_label_d.

_audit_creation_method             'generated by an auxiliary program of Tobunporous'

_symmetry_space_group_name_H-M     'P 1'
_symmetry_Int_Tables_number        1
_symmetry_cell_setting             triclinic

_cell_length_a                    34.2800
_cell_length_b                    34.2800
_cell_length_c                    34.2800
_cell_angle_alpha                 90.0000
_cell_angle_beta                  90.0000
_cell_angle_gamma                 90.0000

loop_
_atom_site_label
_atom_site_fract_x
_atom_site_fract_y
_atom_site_fract_z
_atom_site_occupancy
O1       0.75000    0.75000    0.75000   1.00
Zn1      0.71720    0.78280    0.78280   1.00
Zn1      0.78280    0.71720    0.78280   1.00
Zn1      0.78280    0.78280    0.71720   1.00
Zn1      0.71720    0.71720    0.71720   1.00
O2       0.72650    0.77350    0.83820   1.00
O2       0.72650    0.83820    0.77350   1.00
O2       0.66180    0.77350    0.77350   1.00
O2       0.77350    0.72650    0.83820   1.00
O2       0.83820    0.72650    0.77350   1.00
O2       0.77350    0.66180    0.77350   1.00
O2       0.77350    0.83820    0.72650   1.00
O2       0.83820    0.77350    0.72650   1.00
O2       0.77350    0.77350    0.66180   1.00
O2       0.66180    0.72650    0.72650   1.00
O2       0.72650    0.66180    0.72650   1.00
O2       0.72650    0.72650    0.66180   1.00
C1       0.75000    0.75000    0.85520   1.00
C1       0.75000    0.85520    0.75000   1.00
C1       0.64480    0.75000    0.75000   1.00
C1       0.85520    0.75000    0.75000   1.00
C1       0.75000    0.64480    0.75000   1.00
C1       0.75000    0.75000    0.64480   1.00
O1       0.25000    0.25000    0.75000   1.00
Zn1      0.21720    0.28280    0.78280   1.00
Zn1      0.28280    0.21720    0.78280   1.00
Zn1      0.28280    0.28280    0.71720   1.00
Zn1      0.21720    0.21720    0.71720   1.00
O2       0.22650    0.27350    0.83820   1.00
O2       0.22650    0.33820    0.77350   1.00
O2       0.16180    0.27350    0.77350   1.00
O2       0.27350    0.22650    0.83820   1.00
O2       0.33820    0.22650    0.77350   1.00
O2       0.27350    0.16180    0.77350   1.00
O2       0.27350    0.33820    0.72650   1.00
O2       0.33820    0.27350    0.72650   1.00
O2       0.27350    0.27350    0.66180   1.00
O2       0.16180    0.22650    0.72650   1.00
O2       0.22650    0.16180    0.72650   1.00
O2       0.22650    0.22650    0.66180   1.00
C1       0.25000    0.25000    0.85520   1.00
C1       0.25000    0.35520    0.75000   1.00
C1       0.14480    0.25000    0.75000   1.00
C1       0.35520    0.25000    0.75000   1.00
C1       0.25000    0.14480    0.75000   1.00
C1       0.25000    0.25000    0.64480   1.00
O1       0.25000    0.75000    0.25000   1.00
Zn1      0.21720    0.78280    0.28280   1.00
Zn1      0.28280    0.71720    0.28280   1.00
Zn1      0.28280    0.78280    0.21720   1.00
Zn1      0.21720    0.71720    0.21720   1.00
O2       0.22650    0.77350    0.33820   1.00
O2       0.22650    0.83820    0.27350   1.00
O2       0.16180    0.77350    0.27350   1.00
O2       0.27350    0.72650    0.33820   1.00
O2       0.33820    0.72650    0.27350   1.00
O2       0.27350    0.66180    0.27350   1.00
O2       0.27350    0.83820    0.22650   1.00
O2       0.33820    0.77350    0.22650   1.00
O2       0.27350    0.77350    0.16180   1.00
O2       0.16180    0.72650    0.22650   1.00
O2       0.22650    0.66180    0.22650   1.00
O2       0.22650    0.72650    0.16180   1.00
C1       0.25000    0.75000    0.35520   1.00
C1       0.25000    0.85520    0.25000   1.00
C1       0.14480    0.75000    0.25000   1.00
C1       0.35520    0.75000    0.25000   1.00
C1       0.25000    0.64480    0.25000   1.00
C1       0.25000    0.75000    0.14480   1.00
O1       0.75000    0.25000    0.25000   1.00
Zn1      0.71720    0.28280    0.28280   1.00
Zn1      0.78280    0.21720    0.28280   1.00
Zn1      0.78280    0.28280    0.21720   1.00
Zn1      0.71720    0.21720    0.21720   1.00
O2       0.72650    0.27350    0.33820   1.00
O2       0.72650    0.33820    0.27350   1.00
O2       0.66180    0.27350    0.27350   1.00
O2       0.77350    0.22650    0.33820   1.00
O2       0.83820    0.22650    0.27350   1.00
O2       0.77350    0.16180    0.27350   1.00
O2       0.77350    0.33820    0.22650   1.00
O2       0.83820    0.27350    0.22650   1.00
O2       0.77350    0.27350    0.16180   1.00
O2       0.66180    0.22650    0.22650   1.00
O2       0.72650    0.16180    0.22650   1.00
O2       0.72650    0.22650    0.16180   1.00
C1       0.75000    0.25000    0.35520   1.00
C1       0.75000    0.35520    0.25000   1.00
C1       0.64480    0.25000    0.25000   1.00
C1       0.85520    0.25000    0.25000   1.00
C1       0.75000    0.14480    0.25000   1.00
C1       0.75000    0.25000    0.14480   1.00
O1       0.25000    0.25000    0.25000   1.00
Zn1      0.28280    0.21720    0.21720   1.00
Zn1      0.21720    0.28280    0.21720   1.00
Zn1      0.21720    0.21720    0.28280   1.00
Zn1      0.28280    0.28280    0.28280   1.00
O2       0.27350    0.22650    0.16180   1.00
O2       0.27350    0.16180    0.22650   1.00
O2       0.33820    0.22650    0.22650   1.00
O2       0.22650    0.27350    0.16180   1.00
O2       0.16180    0.27350    0.22650   1.00
O2       0.22650    0.33820    0.22650   1.00
O2       0.22650    0.16180    0.27350   1.00
O2       0.16180    0.22650    0.27350   1.00
O2       0.22650    0.22650    0.33820   1.00
O2       0.33820    0.27350    0.27350   1.00
O2       0.27350    0.33820    0.27350   1.00
O2       0.27350    0.27350    0.33820   1.00
C1       0.25000    0.25000    0.14480   1.00
C1       0.25000    0.14480    0.25000   1.00
C1       0.35520    0.25000    0.25000   1.00
C1       0.14480    0.25000    0.25000   1.00
C1       0.25000    0.35520    0.25000   1.00
C1       0.25000    0.25000    0.35520   1.00
O1       0.75000    0.75000    0.25000   1.00
Zn1      0.78280    0.71720    0.21720   1.00
Zn1      0.71720    0.78280    0.21720   1.00
Zn1      0.71720    0.71720    0.28280   1.00
Zn1      0.78280    0.78280    0.28280   1.00
O2       0.77350    0.72650    0.16180   1.00
O2       0.77350    0.66180    0.22650   1.00
O2       0.83820    0.72650    0.22650   1.00
O2       0.72650    0.77350    0.16180   1.00
O2       0.66180    0.77350    0.22650   1.00
O2       0.72650    0.83820    0.22650   1.00
O2       0.72650    0.66180    0.27350   1.00
O2       0.66180    0.72650    0.27350   1.00
O2       0.72650    0.72650    0.33820   1.00
O2       0.83820    0.77350    0.27350   1.00
O2       0.77350    0.83820    0.27350   1.00
O2       0.77350    0.77350    0.33820   1.00
C1       0.75000    0.75000    0.14480   1.00
C1       0.75000    0.64480    0.25000   1.00
C1       0.85520    0.75000    0.25000   1.00
C1       0.64480    0.75000    0.25000   1.00
C1       0.75000    0.85520    0.25000   1.00
C1       0.75000    0.75000    0.35520   1.00
O1       0.75000    0.25000    0.75000   1.00
Zn1      0.78280    0.21720    0.71720   1.00
Zn1      0.71720    0.28280    0.71720   1.00
Zn1      0.71720    0.21720    0.78280   1.00
Zn1      0.78280    0.28280    0.78280   1.00
O2       0.77350    0.22650    0.66180   1.00
O2       0.77350    0.16180    0.72650   1.00
O2       0.83820    0.22650    0.72650   1.00
O2       0.72650    0.27350    0.66180   1.00
O2       0.66180    0.27350    0.72650   1.00
O2       0.72650    0.33820    0.72650   1.00
O2       0.72650    0.16180    0.77350   1.00
O2       0.66180    0.22650    0.77350   1.00
O2       0.72650    0.22650    0.83820   1.00
O2       0.83820    0.27350    0.77350   1.00
O2       0.77350    0.33820    0.77350   1.00
O2       0.77350    0.27350    0.83820   1.00
C1       0.75000    0.25000    0.64480   1.00
C1       0.75000    0.14480    0.75000   1.00
C1       0.85520    0.25000    0.75000   1.00
C1       0.64480    0.25000    0.75000   1.00
C1       0.75000    0.35520    0.75000   1.00
C1       0.75000    0.25000    0.85520   1.00
O1       0.25000    0.75000    0.75000   1.00
Zn1      0.28280    0.71720    0.71720   1.00
Zn1      0.21720    0.78280    0.71720   1.00
Zn1      0.21720    0.71720    0.78280   1.00
Zn1      0.28280    0.78280    0.78280   1.00
O2       0.27350    0.72650    0.66180   1.00
O2       0.27350    0.66180    0.72650   1.00
O2       0.33820    0.72650    0.72650   1.00
O2       0.22650    0.77350    0.66180   1.00
O2       0.16180    0.77350    0.72650   1.00
O2       0.22650    0.83820    0.72650   1.00
O2       0.22650    0.66180    0.77350   1.00
O2       0.16180    0.72650    0.77350   1.00
O2       0.22650    0.72650    0.83820   1.00
O2       0.33820    0.77350    0.77350   1.00
O2       0.27350    0.83820    0.77350   1.00
O2       0.27350    0.77350    0.83820   1.00
C1       0.25000    0.75000    0.64480   1.00
C1       0.25000    0.64480    0.75000   1.00
C1       0.35520    0.75000    0.75000   1.00
C1       0.14480    0.75000    0.75000   1.00
C1       0.25000    0.85520    0.75000   1.00
C1       0.25000    0.75000    0.85520   1.00
O1       0.91500    0.91500    0.91500   1.00
Zn1      0.88220    0.94780    0.94780   1.00
Zn1      0.94780    0.88220    0.94780   1.00
Zn1      0.94780    0.94780    0.88220   1.00
Zn1      0.88220    0.88220    0.88220   1.00
O2       0.89150    0.93850    1.00320   1.00
O2       0.89150    1.00320    0.93850   1.00
O2       0.82680    0.93850    0.93850   1.00
O2       0.93850    0.89150    1.00320   1.00
O2       1.00320    0.89150    0.93850   1.00
O2       0.93850    0.82680    0.93850   1.00
O2       0.93850    1.00320    0.89150   1.00
O2       1.00320    0.93850    0.89150   1.00
O2       0.93850    0.93850    0.82680   1.00
O2       0.82680    0.89150    0.89150   1.00
O2       0.89150    0.82680    0.89150   1.00
O2       0.89150    0.89150    0.82680   1.00
C1       0.91500    0.91500    1.02020   1.00
C1       0.91500    1.02020    0.91500   1.00
C1       0.80980    0.91500    0.91500   1.00
C1       1.02020    0.91500    0.91500   1.00
C1       0.91500    0.80980    0.91500   1.00
C1       0.91500    0.91500    0.80980   1.00
O1       0.41500    0.41500    0.91500   1.00
Zn1      0.38220    0.44780    0.94780   1.00
Zn1      0.44780    0.38220    0.94780   1.00
Zn1      0.44780    0.44780    0.88220   1.00
Zn1      0.38220    0.38220    0.88220   1.00
O2       0.39150    0.43850    1.00320   1.00
O2       0.39150    0.50320    0.93850   1.00
O2       0.32680    0.43850    0.93850   1.00
O2       0.43850    0.39150    1.00320   1.00
O2       0.50320    0.39150    0.93850   1.00
O2       0.43850    0.32680    0.93850   1.00
O2       0.43850    0.50320    0.89150   1.00
O2       0.50320    0.43850    0.89150   1.00
O2       0.43850    0.43850    0.82680   1.00
O2       0.32680    0.39150    0.89150   1.00
O2       0.39150    0.32680    0.89150   1.00
O2       0.39150    0.39150    0.82680   1.00
C1       0.41500    0.41500    1.02020   1.00
C1       0.41500    0.52020    0.91500   1.00
C1       0.30980    0.41500    0.91500   1.00
C1       0.52020    0.41500    0.91500   1.00
C1       0.41500    0.30980    0.91500   1.00
C1       0.41500    0.41500    0.80980   1.00
O1       0.41500    0.91500    0.41500   1.00
Zn1      0.38220    0.94780    0.44780   1.00
Zn1      0.44780    0.88220    0.44780   1.00
Zn1      0.44780    0.94780    0.38220   1.00
Zn1      0.38220    0.88220    0.38220   1.00
O2       0.39150    0.93850    0.50320   1.00
O2       0.39150    1.00320    0.43850   1.00
O2       0.32680    0.93850    0.43850   1.00
O2       0.43850    0.89150    0.50320   1.00
O2       0.50320    0.89150    0.43850   1.00
O2       0.43850    0.82680    0.43850   1.00
O2       0.43850    1.00320    0.39150   1.00
O2       0.50320    0.93850    0.39150   1.00
O2       0.43850    0.93850    0.32680   1.00
O2       0.32680    0.89150    0.39150   1.00
O2       0.39150    0.82680    0.39150   1.00
O2       0.39150    0.89150    0.32680   1.00
C1       0.41500    0.91500    0.52020   1.00
C1       0.41500    1.02020    0.41500   1.00
C1       0.30980    0.91500    0.41500   1.00
C1       0.52020    0.91500    0.41500   1.00
C1       0.41500    0.80980    0.41500   1.00
C1       0.41500    0.91500    0.30980   1.00
O1       0.91500    0.41500    0.41500   1.00
Zn1      0.88220    0.44780    0.44780   1.00
Zn1      0.94780    0.38220    0.44780   1.00
Zn1      0.94780    0.44780    0.38220   1.00
Zn1      0.88220    0.38220    0.38220   1.00
O2       0.89150    0.43850    0.50320   1.00
O2       0.89150    0.50320    0.43850   1.00
O2       0.82680    0.43850    0.43850   1.00
O2       0.93850    0.39150    0.50320   1.00
O2       1.00320    0.39150    0.43850   1.00
O2       0.93850    0.32680    0.43850   1.00
O2       0.93850    0.50320    0.39150   1.00
O2       1.00320    0.43850    0.39150   1.00
O2       0.93850    0.43850    0.32680   1.00
O2       0.82680    0.39150    0.39150   1.00
O2       0.89150    0.32680    0.39150   1.00
O2       0.89150    0.39150    0.32680   1.00
C1       0.91500    0.41500    0.52020   1.00
C1       0.91500    0.52020    0.41500   1.00
C1       0.80980    0.41500    0.41500   1.00
C1       1.02020    0.41500    0.41500   1.00
C1       0.91500    0.30980    0.41500   1.00
C1       0.91500    0.41500    0.30980   1.00
O1       0.41500    0.41500    0.41500   1.00
Zn1      0.44780    0.38220    0.38220   1.00
Zn1      0.38220    0.44780    0.38220   1.00
Zn1      0.38220    0.38220    0.44780   1.00
Zn1      0.44780    0.44780    0.44780   1.00
O2       0.43850    0.39150    0.32680   1.00
O2       0.43850    0.32680    0.39150   1.00
O2       0.50320    0.39150    0.39150   1.00
O2       0.39150    0.43850    0.32680   1.00
O2       0.32680    0.43850    0.39150   1.00
O2       0.39150    0.50320    0.39150   1.00
O2       0.39150    0.32680    0.43850   1.00
O2       0.32680    0.39150    0.43850   1.00
O2       0.39150    0.39150    0.50320   1.00
O2       0.50320    0.43850    0.43850   1.00
O2       0.43850    0.50320    0.43850   1.00
O2       0.43850    0.43850    0.50320   1.00
C1       0.41500    0.41500    0.30980   1.00
C1       0.41500    0.30980    0.41500   1.00
C1       0.52020    0.41500    0.41500   1.00
C1       0.30980    0.41500    0.41500   1.00
C1       0.41500    0.52020    0.41500   1.00
C1       0.41500    0.41500    0.52020   1.00
O1       0.91500    0.91500    0.41500   1.00
Zn1      0.94780    0.88220    0.38220   1.00
Zn1      0.88220    0.94780    0.38220   1.00
Zn1      0.88220    0.88220    0.44780   1.00
Zn1      0.94780    0.94780    0.44780   1.00
O2       0.93850    0.89150    0.32680   1.00
O2       0.93850    0.82680    0.39150   1.00
O2       1.00320    0.89150    0.39150   1.00
O2       0.89150    0.93850    0.32680   1.00
O2       0.82680    0.93850    0.39150   1.00
O2       0.89150    1.00320    0.39150   1.00
O2       0.89150    0.82680    0.43850   1.00
O2       0.82680    0.89150    0.43850   1.00
O2       0.89150    0.89150    0.50320   1.00
O2       1.00320    0.93850    0.43850   1.00
O2       0.93850    1.00320    0.43850   1.00
O2       0.93850    0.93850    0.50320   1.00
C1       0.91500    0.91500    0.30980   1.00
C1       0.91500    0.80980    0.41500   1.00
C1       1.02020    0.91500    0.41500   1.00
C1       0.80980    0.91500    0.41500   1.00
C1       0.91500    1.02020    0.41500   1.00
C1       0.91500    0.91500    0.52020   1.00
O1       0.91500    0.41500    0.91500   1.00
Zn1      0.94780    0.38220    0.88220   1.00
Zn1      0.88220    0.44780    0.88220   1.00
Zn1      0.88220    0.38220    0.94780   1.00
Zn1      0.94780    0.44780    0.94780   1.00
O2       0.93850    0.39150    0.82680   1.00
O2       0.93850    0.32680    0.89150   1.00
O2       1.00320    0.39150    0.89150   1.00
O2       0.89150    0.43850    0.82680   1.00
O2       0.82680    0.43850    0.89150   1.00
O2       0.89150    0.50320    0.89150   1.00
O2       0.89150    0.32680    0.93850   1.00
O2       0.82680    0.39150    0.93850   1.00
O2       0.89150    0.39150    1.00320   1.00
O2       1.00320    0.43850    0.93850   1.00
O2       0.93850    0.50320    0.93850   1.00
O2       0.93850    0.43850    1.00320   1.00
C1       0.91500    0.41500    0.80980   1.00
C1       0.91500    0.30980    0.91500   1.00
C1       1.02020    0.41500    0.91500   1.00
C1       0.80980    0.41500    0.91500   1.00
C1       0.91500    0.52020    0.91500   1.00
C1       0.91500    0.41500    1.02020   1.00
O1       0.41500    0.91500    0.91500   1.00
Zn1      0.44780    0.88220    0.88220   1.00
Zn1      0.38220    0.94780    0.88220   1.00
Zn1      0.38220    0.88220    0.94780   1.00
Zn1      0.44780    0.94780    0.94780   1.00
O2       0.43850    0.89150    0.82680   1.00
O2       0.43850    0.82680    0.89150   1.00
O2       0.50320    0.89150    0.89150   1.00
O2       0.39150    0.93850    0.82680   1.00
O2       0.32680    0.93850    0.89150   1.00
O2       0.39150    1.00320    0.89150   1.00
O2       0.39150    0.82680    0.93850   1.00
O2       0.32680    0.89150    0.93850   1.00
O2       0.39150    0.89150    1.00320   1.00
O2       0.50320    0.93850    0.93850   1.00
O2       0.43850    1.00320    0.93850   1.00
O2       0.43850    0.93850    1.00320   1.00
C1       0.41500    0.91500    0.80980   1.00
C1       0.41500    0.80980    0.91500   1.00
C1       0.52020    0.91500    0.91500   1.00
C1       0.30980    0.91500    0.91500   1.00
C1       0.41500    1.02020    0.91500   1.00
C1       0.41500    0.91500    1.02020   1.00
C4       0.75063    0.75045    0.97917   1.00
C4       0.74937    0.74955    1.02083   1.00
C3       0.78631    0.75280    0.95846   1.00
C3       0.77684    0.72838    1.04321   1.00
C3       0.71619    0.74807    0.95643   1.00
C3       0.72088    0.77081    1.04187   1.00
C2       0.75303    0.75033    0.89487   1.00
C2       0.74728    0.74962    1.10514   1.00
C3       0.78740    0.75278    0.91715   1.00
C3       0.77571    0.72841    1.08449   1.00
C3       0.71745    0.74803    0.91514   1.00
C3a      0.71964    0.77092    1.08328   1.00
H1       0.81358    0.75503    0.97425   1.00
H1       0.79911    0.71125    1.02875   1.00
H1       0.81527    0.75470    0.90240   1.00
H1       0.79716    0.71167    1.10056   1.00
H1       0.69048    0.74596    0.89882   1.00
C5       0.68868    0.79438    1.10380   1.00
H1       0.69936    0.78780    1.02622   1.00
H1       0.68807    0.74542    0.97059   1.00
H2       0.69097    0.79105    1.13599   1.00
H2       0.69331    0.82576    1.09705   1.00
N1       0.64977    0.78207    1.09125   1.00
C6       0.63399    0.74647    1.09644   1.00
C6       0.62307    0.80429    1.07288   1.00
C6       0.59683    0.74580    1.08102   1.00
C6       0.58988    0.78258    1.06604   1.00
H3       0.64864    0.72223    1.11049   1.00
H3       0.62730    0.83454    1.06484   1.00
H3       0.57700    0.72126    1.08076   1.00
H3       0.56353    0.79247    1.05180   1.00
C4       0.75045    0.97917    0.75063   1.00
C4       0.74955    1.02083    0.74937   1.00
C3       0.75280    0.95846    0.78631   1.00
C3       0.72838    1.04321    0.77684   1.00
C3       0.74807    0.95643    0.71619   1.00
C3       0.77081    1.04187    0.72088   1.00
C2       0.75033    0.89487    0.75303   1.00
C2       0.74962    1.10514    0.74728   1.00
C3       0.75278    0.91715    0.78740   1.00
C3       0.72841    1.08449    0.77571   1.00
C3       0.74803    0.91514    0.71745   1.00
C3a      0.77092    1.08328    0.71964   1.00
H1       0.75503    0.97425    0.81358   1.00
H1       0.71125    1.02875    0.79911   1.00
H1       0.75470    0.90240    0.81527   1.00
H1       0.71167    1.10056    0.79716   1.00
H1       0.74596    0.89882    0.69048   1.00
C5       0.79438    1.10380    0.68868   1.00
H1       0.78780    1.02622    0.69936   1.00
H1       0.74542    0.97059    0.68807   1.00
H2       0.79105    1.13599    0.69097   1.00
H2       0.82576    1.09705    0.69331   1.00
N1       0.78207    1.09125    0.64977   1.00
C6       0.74647    1.09644    0.63399   1.00
C6       0.80429    1.07288    0.62307   1.00
C6       0.74580    1.08102    0.59683   1.00
C6       0.78258    1.06604    0.58988   1.00
H3       0.72223    1.11049    0.64864   1.00
H3       0.83454    1.06484    0.62730   1.00
H3       0.72126    1.08076    0.57700   1.00
H3       0.79247    1.05180    0.56353   1.00
C4       0.52083    0.75063    0.74955   1.00
C4       0.47917    0.74937    0.75045   1.00
C3       0.54154    0.78631    0.74720   1.00
C3       0.45679    0.77684    0.77162   1.00
C3       0.54357    0.71619    0.75193   1.00
C3       0.45813    0.72088    0.72919   1.00
C2       0.60513    0.75303    0.74967   1.00
C2       0.39486    0.74728    0.75038   1.00
C3       0.58285    0.78740    0.74722   1.00
C3       0.41551    0.77571    0.77159   1.00
C3       0.58486    0.71745    0.75197   1.00
C3a      0.41672    0.71964    0.72908   1.00
H1       0.52575    0.81358    0.74497   1.00
H1       0.47125    0.79911    0.78875   1.00
H1       0.59760    0.81527    0.74530   1.00
H1       0.39944    0.79716    0.78833   1.00
H1       0.60118    0.69048    0.75404   1.00
C5       0.39620    0.68868    0.70562   1.00
H1       0.47378    0.69936    0.71220   1.00
H1       0.52941    0.68807    0.75458   1.00
H2       0.36401    0.69097    0.70895   1.00
H2       0.40295    0.69331    0.67424   1.00
N1       0.40875    0.64977    0.71793   1.00
C6       0.40356    0.63399    0.75353   1.00
C6       0.42712    0.62307    0.69571   1.00
C6       0.41898    0.59683    0.75420   1.00
C6       0.43396    0.58988    0.71742   1.00
H3       0.38951    0.64864    0.77777   1.00
H3       0.43516    0.62730    0.66546   1.00
H3       0.41924    0.57700    0.77874   1.00
H3       0.44820    0.56353    0.70753   1.00
C4       0.97917    0.75063    0.75045   1.00
C4       1.02083    0.74937    0.74955   1.00
C3       0.95846    0.78631    0.75280   1.00
C3       1.04321    0.77684    0.72838   1.00
C3       0.95643    0.71619    0.74807   1.00
C3       1.04187    0.72088    0.77081   1.00
C2       0.89487    0.75303    0.75033   1.00
C2       1.10514    0.74728    0.74962   1.00
C3       0.91715    0.78740    0.75278   1.00
C3       1.08449    0.77571    0.72841   1.00
C3       0.91514    0.71745    0.74803   1.00
C3a      1.08328    0.71964    0.77092   1.00
H1       0.97425    0.81358    0.75503   1.00
H1       1.02875    0.79911    0.71125   1.00
H1       0.90240    0.81527    0.75470   1.00
H1       1.10056    0.79716    0.71167   1.00
H1       0.89882    0.69048    0.74596   1.00
C5       1.10380    0.68868    0.79438   1.00
H1       1.02622    0.69936    0.78780   1.00
H1       0.97059    0.68807    0.74542   1.00
H2       1.13599    0.69097    0.79105   1.00
H2       1.09705    0.69331    0.82576   1.00
N1       1.09125    0.64977    0.78207   1.00
C6       1.09644    0.63399    0.74647   1.00
C6       1.07288    0.62307    0.80429   1.00
C6       1.08102    0.59683    0.74580   1.00
C6       1.06604    0.58988    0.78258   1.00
H3       1.11049    0.64864    0.72223   1.00
H3       1.06484    0.62730    0.83454   1.00
H3       1.08076    0.57700    0.72126   1.00
H3       1.05180    0.56353    0.79247   1.00
C4       0.74955    0.52083    0.75063   1.00
C4       0.75045    0.47917    0.74937   1.00
C3       0.74720    0.54154    0.78631   1.00
C3       0.77162    0.45679    0.77684   1.00
C3       0.75193    0.54357    0.71619   1.00
C3       0.72919    0.45813    0.72088   1.00
C2       0.74967    0.60513    0.75303   1.00
C2       0.75038    0.39486    0.74728   1.00
C3       0.74722    0.58285    0.78740   1.00
C3       0.77159    0.41551    0.77571   1.00
C3       0.75197    0.58486    0.71745   1.00
C3a      0.72908    0.41672    0.71964   1.00
H1       0.74497    0.52575    0.81358   1.00
H1       0.78875    0.47125    0.79911   1.00
H1       0.74530    0.59760    0.81527   1.00
H1       0.78833    0.39944    0.79716   1.00
H1       0.75404    0.60118    0.69048   1.00
C5       0.70562    0.39620    0.68868   1.00
H1       0.71220    0.47378    0.69936   1.00
H1       0.75458    0.52941    0.68807   1.00
H2       0.70895    0.36401    0.69097   1.00
H2       0.67424    0.40295    0.69331   1.00
N1       0.71793    0.40875    0.64977   1.00
C6       0.75353    0.40356    0.63399   1.00
C6       0.69571    0.42712    0.62307   1.00
C6       0.75420    0.41898    0.59683   1.00
C6       0.71742    0.43396    0.58988   1.00
H3       0.77777    0.38951    0.64864   1.00
H3       0.66546    0.43516    0.62730   1.00
H3       0.77874    0.41924    0.57700   1.00
H3       0.70753    0.44820    0.56353   1.00
C4       0.75063    0.74955    0.52083   1.00
C4       0.74937    0.75045    0.47917   1.00
C3       0.78631    0.74720    0.54154   1.00
C3       0.77684    0.77162    0.45679   1.00
C3       0.71619    0.75193    0.54357   1.00
C3       0.72088    0.72919    0.45813   1.00
C2       0.75303    0.74967    0.60513   1.00
C2       0.74728    0.75038    0.39486   1.00
C3       0.78740    0.74722    0.58285   1.00
C3       0.77571    0.77159    0.41551   1.00
C3       0.71745    0.75197    0.58486   1.00
C3a      0.71964    0.72908    0.41672   1.00
H1       0.81358    0.74497    0.52575   1.00
H1       0.79911    0.78875    0.47125   1.00
H1       0.81527    0.74530    0.59760   1.00
H1       0.79716    0.78833    0.39944   1.00
H1       0.69048    0.75404    0.60118   1.00
C5       0.68868    0.70562    0.39620   1.00
H1       0.69936    0.71220    0.47378   1.00
H1       0.68807    0.75458    0.52941   1.00
H2       0.69097    0.70895    0.36401   1.00
H2       0.69331    0.67424    0.40295   1.00
N1       0.64977    0.71793    0.40875   1.00
C6       0.63399    0.75353    0.40356   1.00
C6       0.62307    0.69571    0.42712   1.00
C6       0.59683    0.75420    0.41898   1.00
C6       0.58988    0.71742    0.43396   1.00
H3       0.64864    0.77777    0.38951   1.00
H3       0.62730    0.66546    0.43516   1.00
H3       0.57700    0.77874    0.41924   1.00
H3       0.56353    0.70753    0.44820   1.00
C4       0.25063    0.25045    0.97917   1.00
C4       0.24937    0.24955    1.02083   1.00
C3       0.28631    0.25280    0.95846   1.00
C3       0.27684    0.22838    1.04321   1.00
C3       0.21619    0.24807    0.95643   1.00
C3       0.22088    0.27081    1.04187   1.00
C2       0.25303    0.25033    0.89487   1.00
C2       0.24728    0.24962    1.10514   1.00
C3       0.28740    0.25278    0.91715   1.00
C3       0.27571    0.22841    1.08449   1.00
C3       0.21745    0.24803    0.91514   1.00
C3a      0.21964    0.27092    1.08328   1.00
H1       0.31358    0.25503    0.97425   1.00
H1       0.29911    0.21125    1.02875   1.00
H1       0.31527    0.25470    0.90240   1.00
H1       0.29716    0.21167    1.10056   1.00
H1       0.19048    0.24596    0.89882   1.00
C5       0.18868    0.29438    1.10380   1.00
H1       0.19936    0.28780    1.02622   1.00
H1       0.18807    0.24542    0.97059   1.00
H2       0.19097    0.29105    1.13599   1.00
H2       0.19331    0.32576    1.09705   1.00
N1       0.14977    0.28207    1.09125   1.00
C6       0.13399    0.24647    1.09644   1.00
C6       0.12307    0.30429    1.07288   1.00
C6       0.09683    0.24580    1.08102   1.00
C6       0.08988    0.28258    1.06604   1.00
H3       0.14864    0.22223    1.11049   1.00
H3       0.12730    0.33454    1.06484   1.00
H3       0.07700    0.22126    1.08076   1.00
H3       0.06353    0.29247    1.05180   1.00
C4       0.25045    0.47917    0.75063   1.00
C4       0.24955    0.52083    0.74937   1.00
C3       0.25280    0.45846    0.78631   1.00
C3       0.22838    0.54321    0.77684   1.00
C3       0.24807    0.45643    0.71619   1.00
C3       0.27081    0.54187    0.72088   1.00
C2       0.25033    0.39487    0.75303   1.00
C2       0.24962    0.60514    0.74728   1.00
C3       0.25278    0.41715    0.78740   1.00
C3       0.22841    0.58449    0.77571   1.00
C3       0.24803    0.41514    0.71745   1.00
C3a      0.27092    0.58328    0.71964   1.00
H1       0.25503    0.47425    0.81358   1.00
H1       0.21125    0.52875    0.79911   1.00
H1       0.25470    0.40240    0.81527   1.00
H1       0.21167    0.60056    0.79716   1.00
H1       0.24596    0.39882    0.69048   1.00
C5       0.29438    0.60380    0.68868   1.00
H1       0.28780    0.52622    0.69936   1.00
H1       0.24542    0.47059    0.68807   1.00
H2       0.29105    0.63599    0.69097   1.00
H2       0.32576    0.59705    0.69331   1.00
N1       0.28207    0.59125    0.64977   1.00
C6       0.24647    0.59644    0.63399   1.00
C6       0.30429    0.57288    0.62307   1.00
C6       0.24580    0.58102    0.59683   1.00
C6       0.28258    0.56604    0.58988   1.00
H3       0.22223    0.61049    0.64864   1.00
H3       0.33454    0.56484    0.62730   1.00
H3       0.22126    0.58076    0.57700   1.00
H3       0.29247    0.55180    0.56353   1.00
C4       0.02083    0.25063    0.74955   1.00
C4       -0.02083   0.24937    0.75045   1.00
C3       0.04154    0.28631    0.74720   1.00
C3       -0.04321   0.27684    0.77162   1.00
C3       0.04357    0.21619    0.75193   1.00
C3       -0.04187   0.22088    0.72919   1.00
C2       0.10513    0.25303    0.74967   1.00
C2       -0.10514   0.24728    0.75038   1.00
C3       0.08285    0.28740    0.74722   1.00
C3       -0.08449   0.27571    0.77159   1.00
C3       0.08486    0.21745    0.75197   1.00
C3a      -0.08328   0.21964    0.72908   1.00
H1       0.02575    0.31358    0.74497   1.00
H1       -0.02875   0.29911    0.78875   1.00
H1       0.09760    0.31527    0.74530   1.00
H1       -0.10056   0.29716    0.78833   1.00
H1       0.10118    0.19048    0.75404   1.00
C5       -0.10380   0.18868    0.70562   1.00
H1       -0.02622   0.19936    0.71220   1.00
H1       0.02941    0.18807    0.75458   1.00
H2       -0.13599   0.19097    0.70895   1.00
H2       -0.09705   0.19331    0.67424   1.00
N1       -0.09125   0.14977    0.71793   1.00
C6       -0.09644   0.13399    0.75353   1.00
C6       -0.07288   0.12307    0.69571   1.00
C6       -0.08102   0.09683    0.75420   1.00
C6       -0.06604   0.08988    0.71742   1.00
H3       -0.11049   0.14864    0.77777   1.00
H3       -0.06484   0.12730    0.66546   1.00
H3       -0.08076   0.07700    0.77874   1.00
H3       -0.05180   0.06353    0.70753   1.00
C4       0.47917    0.25063    0.75045   1.00
C4       0.52083    0.24937    0.74955   1.00
C3       0.45846    0.28631    0.75280   1.00
C3       0.54321    0.27684    0.72838   1.00
C3       0.45643    0.21619    0.74807   1.00
C3       0.54187    0.22088    0.77081   1.00
C2       0.39487    0.25303    0.75033   1.00
C2       0.60514    0.24728    0.74962   1.00
C3       0.41715    0.28740    0.75278   1.00
C3       0.58449    0.27571    0.72841   1.00
C3       0.41514    0.21745    0.74803   1.00
C3a      0.58328    0.21964    0.77092   1.00
H1       0.47425    0.31358    0.75503   1.00
H1       0.52875    0.29911    0.71125   1.00
H1       0.40240    0.31527    0.75470   1.00
H1       0.60056    0.29716    0.71167   1.00
H1       0.39882    0.19048    0.74596   1.00
C5       0.60380    0.18868    0.79438   1.00
H1       0.52622    0.19936    0.78780   1.00
H1       0.47059    0.18807    0.74542   1.00
H2       0.63599    0.19097    0.79105   1.00
H2       0.59705    0.19331    0.82576   1.00
N1       0.59125    0.14977    0.78207   1.00
C6       0.59644    0.13399    0.74647   1.00
C6       0.57288    0.12307    0.80429   1.00
C6       0.58102    0.09683    0.74580   1.00
C6       0.56604    0.08988    0.78258   1.00
H3       0.61049    0.14864    0.72223   1.00
H3       0.56484    0.12730    0.83454   1.00
H3       0.58076    0.07700    0.72126   1.00
H3       0.55180    0.06353    0.79247   1.00
C4       0.24955    0.02083    0.75063   1.00
C4       0.25045    -0.02083   0.74937   1.00
C3       0.24720    0.04154    0.78631   1.00
C3       0.27162    -0.04321   0.77684   1.00
C3       0.25193    0.04357    0.71619   1.00
C3       0.22919    -0.04187   0.72088   1.00
C2       0.24967    0.10513    0.75303   1.00
C2       0.25038    -0.10514   0.74728   1.00
C3       0.24722    0.08285    0.78740   1.00
C3       0.27159    -0.08449   0.77571   1.00
C3       0.25197    0.08486    0.71745   1.00
C3a      0.22908    -0.08328   0.71964   1.00
H1       0.24497    0.02575    0.81358   1.00
H1       0.28875    -0.02875   0.79911   1.00
H1       0.24530    0.09760    0.81527   1.00
H1       0.28833    -0.10056   0.79716   1.00
H1       0.25404    0.10118    0.69048   1.00
C5       0.20562    -0.10380   0.68868   1.00
H1       0.21220    -0.02622   0.69936   1.00
H1       0.25458    0.02941    0.68807   1.00
H2       0.20895    -0.13599   0.69097   1.00
H2       0.17424    -0.09705   0.69331   1.00
N1       0.21793    -0.09125   0.64977   1.00
C6       0.25353    -0.09644   0.63399   1.00
C6       0.19571    -0.07288   0.62307   1.00
C6       0.25420    -0.08102   0.59683   1.00
C6       0.21742    -0.06604   0.58988   1.00
H3       0.27777    -0.11049   0.64864   1.00
H3       0.16546    -0.06484   0.62730   1.00
H3       0.27874    -0.08076   0.57700   1.00
H3       0.20753    -0.05180   0.56353   1.00
C4       0.25063    0.24955    0.52083   1.00
C4       0.24937    0.25045    0.47917   1.00
C3       0.28631    0.24720    0.54154   1.00
C3       0.27684    0.27162    0.45679   1.00
C3       0.21619    0.25193    0.54357   1.00
C3       0.22088    0.22919    0.45813   1.00
C2       0.25303    0.24967    0.60513   1.00
C2       0.24728    0.25038    0.39486   1.00
C3       0.28740    0.24722    0.58285   1.00
C3       0.27571    0.27159    0.41551   1.00
C3       0.21745    0.25197    0.58486   1.00
C3a      0.21964    0.22908    0.41672   1.00
H1       0.31358    0.24497    0.52575   1.00
H1       0.29911    0.28875    0.47125   1.00
H1       0.31527    0.24530    0.59760   1.00
H1       0.29716    0.28833    0.39944   1.00
H1       0.19048    0.25404    0.60118   1.00
C5       0.18868    0.20562    0.39620   1.00
H1       0.19936    0.21220    0.47378   1.00
H1       0.18807    0.25458    0.52941   1.00
H2       0.19097    0.20895    0.36401   1.00
H2       0.19331    0.17424    0.40295   1.00
N1       0.14977    0.21793    0.40875   1.00
C6       0.13399    0.25353    0.40356   1.00
C6       0.12307    0.19571    0.42712   1.00
C6       0.09683    0.25420    0.41898   1.00
C6       0.08988    0.21742    0.43396   1.00
H3       0.14864    0.27777    0.38951   1.00
H3       0.12730    0.16546    0.43516   1.00
H3       0.07700    0.27874    0.41924   1.00
H3       0.06353    0.20753    0.44820   1.00
C4       0.25063    0.75045    0.47917   1.00
C4       0.24937    0.74955    0.52083   1.00
C3       0.28631    0.75280    0.45846   1.00
C3       0.27684    0.72838    0.54321   1.00
C3       0.21619    0.74807    0.45643   1.00
C3       0.22088    0.77081    0.54187   1.00
C2       0.25303    0.75033    0.39487   1.00
C2       0.24728    0.74962    0.60514   1.00
C3       0.28740    0.75278    0.41715   1.00
C3       0.27571    0.72841    0.58449   1.00
C3       0.21745    0.74803    0.41514   1.00
C3a      0.21964    0.77092    0.58328   1.00
H1       0.31358    0.75503    0.47425   1.00
H1       0.29911    0.71125    0.52875   1.00
H1       0.31527    0.75470    0.40240   1.00
H1       0.29716    0.71167    0.60056   1.00
H1       0.19048    0.74596    0.39882   1.00
C5       0.18868    0.79438    0.60380   1.00
H1       0.19936    0.78780    0.52622   1.00
H1       0.18807    0.74542    0.47059   1.00
H2       0.19097    0.79105    0.63599   1.00
H2       0.19331    0.82576    0.59705   1.00
N1       0.14977    0.78207    0.59125   1.00
C6       0.13399    0.74647    0.59644   1.00
C6       0.12307    0.80429    0.57288   1.00
C6       0.09683    0.74580    0.58102   1.00
C6       0.08988    0.78258    0.56604   1.00
H3       0.14864    0.72223    0.61049   1.00
H3       0.12730    0.83454    0.56484   1.00
H3       0.07700    0.72126    0.58076   1.00
H3       0.06353    0.79247    0.55180   1.00
C4       0.25045    0.97917    0.25063   1.00
C4       0.24955    1.02083    0.24937   1.00
C3       0.25280    0.95846    0.28631   1.00
C3       0.22838    1.04321    0.27684   1.00
C3       0.24807    0.95643    0.21619   1.00
C3       0.27081    1.04187    0.22088   1.00
C2       0.25033    0.89487    0.25303   1.00
C2       0.24962    1.10514    0.24728   1.00
C3       0.25278    0.91715    0.28740   1.00
C3       0.22841    1.08449    0.27571   1.00
C3       0.24803    0.91514    0.21745   1.00
C3a      0.27092    1.08328    0.21964   1.00
H1       0.25503    0.97425    0.31358   1.00
H1       0.21125    1.02875    0.29911   1.00
H1       0.25470    0.90240    0.31527   1.00
H1       0.21167    1.10056    0.29716   1.00
H1       0.24596    0.89882    0.19048   1.00
C5       0.29438    1.10380    0.18868   1.00
H1       0.28780    1.02622    0.19936   1.00
H1       0.24542    0.97059    0.18807   1.00
H2       0.29105    1.13599    0.19097   1.00
H2       0.32576    1.09705    0.19331   1.00
N1       0.28207    1.09125    0.14977   1.00
C6       0.24647    1.09644    0.13399   1.00
C6       0.30429    1.07288    0.12307   1.00
C6       0.24580    1.08102    0.09683   1.00
C6       0.28258    1.06604    0.08988   1.00
H3       0.22223    1.11049    0.14864   1.00
H3       0.33454    1.06484    0.12730   1.00
H3       0.22126    1.08076    0.07700   1.00
H3       0.29247    1.05180    0.06353   1.00
C4       0.02083    0.75063    0.24955   1.00
C4       -0.02083   0.74937    0.25045   1.00
C3       0.04154    0.78631    0.24720   1.00
C3       -0.04321   0.77684    0.27162   1.00
C3       0.04357    0.71619    0.25193   1.00
C3       -0.04187   0.72088    0.22919   1.00
C2       0.10513    0.75303    0.24967   1.00
C2       -0.10514   0.74728    0.25038   1.00
C3       0.08285    0.78740    0.24722   1.00
C3       -0.08449   0.77571    0.27159   1.00
C3       0.08486    0.71745    0.25197   1.00
C3a      -0.08328   0.71964    0.22908   1.00
H1       0.02575    0.81358    0.24497   1.00
H1       -0.02875   0.79911    0.28875   1.00
H1       0.09760    0.81527    0.24530   1.00
H1       -0.10056   0.79716    0.28833   1.00
H1       0.10118    0.69048    0.25404   1.00
C5       -0.10380   0.68868    0.20562   1.00
H1       -0.02622   0.69936    0.21220   1.00
H1       0.02941    0.68807    0.25458   1.00
H2       -0.13599   0.69097    0.20895   1.00
H2       -0.09705   0.69331    0.17424   1.00
N1       -0.09125   0.64977    0.21793   1.00
C6       -0.09644   0.63399    0.25353   1.00
C6       -0.07288   0.62307    0.19571   1.00
C6       -0.08102   0.59683    0.25420   1.00
C6       -0.06604   0.58988    0.21742   1.00
H3       -0.11049   0.64864    0.27777   1.00
H3       -0.06484   0.62730    0.16546   1.00
H3       -0.08076   0.57700    0.27874   1.00
H3       -0.05180   0.56353    0.20753   1.00
C4       0.47917    0.75063    0.25045   1.00
C4       0.52083    0.74937    0.24955   1.00
C3       0.45846    0.78631    0.25280   1.00
C3       0.54321    0.77684    0.22838   1.00
C3       0.45643    0.71619    0.24807   1.00
C3       0.54187    0.72088    0.27081   1.00
C2       0.39487    0.75303    0.25033   1.00
C2       0.60514    0.74728    0.24962   1.00
C3       0.41715    0.78740    0.25278   1.00
C3       0.58449    0.77571    0.22841   1.00
C3       0.41514    0.71745    0.24803   1.00
C3a      0.58328    0.71964    0.27092   1.00
H1       0.47425    0.81358    0.25503   1.00
H1       0.52875    0.79911    0.21125   1.00
H1       0.40240    0.81527    0.25470   1.00
H1       0.60056    0.79716    0.21167   1.00
H1       0.39882    0.69048    0.24596   1.00
C5       0.60380    0.68868    0.29438   1.00
H1       0.52622    0.69936    0.28780   1.00
H1       0.47059    0.68807    0.24542   1.00
H2       0.63599    0.69097    0.29105   1.00
H2       0.59705    0.69331    0.32576   1.00
N1       0.59125    0.64977    0.28207   1.00
C6       0.59644    0.63399    0.24647   1.00
C6       0.57288    0.62307    0.30429   1.00
C6       0.58102    0.59683    0.24580   1.00
C6       0.56604    0.58988    0.28258   1.00
H3       0.61049    0.64864    0.22223   1.00
H3       0.56484    0.62730    0.33454   1.00
H3       0.58076    0.57700    0.22126   1.00
H3       0.55180    0.56353    0.29247   1.00
C4       0.24955    0.52083    0.25063   1.00
C4       0.25045    0.47917    0.24937   1.00
C3       0.24720    0.54154    0.28631   1.00
C3       0.27162    0.45679    0.27684   1.00
C3       0.25193    0.54357    0.21619   1.00
C3       0.22919    0.45813    0.22088   1.00
C2       0.24967    0.60513    0.25303   1.00
C2       0.25038    0.39486    0.24728   1.00
C3       0.24722    0.58285    0.28740   1.00
C3       0.27159    0.41551    0.27571   1.00
C3       0.25197    0.58486    0.21745   1.00
C3a      0.22908    0.41672    0.21964   1.00
H1       0.24497    0.52575    0.31358   1.00
H1       0.28875    0.47125    0.29911   1.00
H1       0.24530    0.59760    0.31527   1.00
H1       0.28833    0.39944    0.29716   1.00
H1       0.25404    0.60118    0.19048   1.00
C5       0.20562    0.39620    0.18868   1.00
H1       0.21220    0.47378    0.19936   1.00
H1       0.25458    0.52941    0.18807   1.00
H2       0.20895    0.36401    0.19097   1.00
H2       0.17424    0.40295    0.19331   1.00
N1       0.21793    0.40875    0.14977   1.00
C6       0.25353    0.40356    0.13399   1.00
C6       0.19571    0.42712    0.12307   1.00
C6       0.25420    0.41898    0.09683   1.00
C6       0.21742    0.43396    0.08988   1.00
H3       0.27777    0.38951    0.14864   1.00
H3       0.16546    0.43516    0.12730   1.00
H3       0.27874    0.41924    0.07700   1.00
H3       0.20753    0.44820    0.06353   1.00
C4       0.25063    0.74955    0.02083   1.00
C4       0.24937    0.75045    -0.02083   1.00
C3       0.28631    0.74720    0.04154   1.00
C3       0.27684    0.77162    -0.04321   1.00
C3       0.21619    0.75193    0.04357   1.00
C3       0.22088    0.72919    -0.04187   1.00
C2       0.25303    0.74967    0.10513   1.00
C2       0.24728    0.75038    -0.10514   1.00
C3       0.28740    0.74722    0.08285   1.00
C3       0.27571    0.77159    -0.08449   1.00
C3       0.21745    0.75197    0.08486   1.00
C3a      0.21964    0.72908    -0.08328   1.00
H1       0.31358    0.74497    0.02575   1.00
H1       0.29911    0.78875    -0.02875   1.00
H1       0.31527    0.74530    0.09760   1.00
H1       0.29716    0.78833    -0.10056   1.00
H1       0.19048    0.75404    0.10118   1.00
C5       0.18868    0.70562    -0.10380   1.00
H1       0.19936    0.71220    -0.02622   1.00
H1       0.18807    0.75458    0.02941   1.00
H2       0.19097    0.70895    -0.13599   1.00
H2       0.19331    0.67424    -0.09705   1.00
N1       0.14977    0.71793    -0.09125   1.00
C6       0.13399    0.75353    -0.09644   1.00
C6       0.12307    0.69571    -0.07288   1.00
C6       0.09683    0.75420    -0.08102   1.00
C6       0.08988    0.71742    -0.06604   1.00
H3       0.14864    0.77777    -0.11049   1.00
H3       0.12730    0.66546    -0.06484   1.00
H3       0.07700    0.77874    -0.08076   1.00
H3       0.06353    0.70753    -0.05180   1.00
C4       0.75063    0.25045    0.47917   1.00
C4       0.74937    0.24955    0.52083   1.00
C3       0.78631    0.25280    0.45846   1.00
C3       0.77684    0.22838    0.54321   1.00
C3       0.71619    0.24807    0.45643   1.00
C3       0.72088    0.27081    0.54187   1.00
C2       0.75303    0.25033    0.39487   1.00
C2       0.74728    0.24962    0.60514   1.00
C3       0.78740    0.25278    0.41715   1.00
C3       0.77571    0.22841    0.58449   1.00
C3       0.71745    0.24803    0.41514   1.00
C3a      0.71964    0.27092    0.58328   1.00
H1       0.81358    0.25503    0.47425   1.00
H1       0.79911    0.21125    0.52875   1.00
H1       0.81527    0.25470    0.40240   1.00
H1       0.79716    0.21167    0.60056   1.00
H1       0.69048    0.24596    0.39882   1.00
C5       0.68868    0.29438    0.60380   1.00
H1       0.69936    0.28780    0.52622   1.00
H1       0.68807    0.24542    0.47059   1.00
H2       0.69097    0.29105    0.63599   1.00
H2       0.69331    0.32576    0.59705   1.00
N1       0.64977    0.28207    0.59125   1.00
C6       0.63399    0.24647    0.59644   1.00
C6       0.62307    0.30429    0.57288   1.00
C6       0.59683    0.24580    0.58102   1.00
C6       0.58988    0.28258    0.56604   1.00
H3       0.64864    0.22223    0.61049   1.00
H3       0.62730    0.33454    0.56484   1.00
H3       0.57700    0.22126    0.58076   1.00
H3       0.56353    0.29247    0.55180   1.00
C4       0.75045    0.47917    0.25063   1.00
C4       0.74955    0.52083    0.24937   1.00
C3       0.75280    0.45846    0.28631   1.00
C3       0.72838    0.54321    0.27684   1.00
C3       0.74807    0.45643    0.21619   1.00
C3       0.77081    0.54187    0.22088   1.00
C2       0.75033    0.39487    0.25303   1.00
C2       0.74962    0.60514    0.24728   1.00
C3       0.75278    0.41715    0.28740   1.00
C3       0.72841    0.58449    0.27571   1.00
C3       0.74803    0.41514    0.21745   1.00
C3a      0.77092    0.58328    0.21964   1.00
H1       0.75503    0.47425    0.31358   1.00
H1       0.71125    0.52875    0.29911   1.00
H1       0.75470    0.40240    0.31527   1.00
H1       0.71167    0.60056    0.29716   1.00
H1       0.74596    0.39882    0.19048   1.00
C5       0.79438    0.60380    0.18868   1.00
H1       0.78780    0.52622    0.19936   1.00
H1       0.74542    0.47059    0.18807   1.00
H2       0.79105    0.63599    0.19097   1.00
H2       0.82576    0.59705    0.19331   1.00
N1       0.78207    0.59125    0.14977   1.00
C6       0.74647    0.59644    0.13399   1.00
C6       0.80429    0.57288    0.12307   1.00
C6       0.74580    0.58102    0.09683   1.00
C6       0.78258    0.56604    0.08988   1.00
H3       0.72223    0.61049    0.14864   1.00
H3       0.83454    0.56484    0.12730   1.00
H3       0.72126    0.58076    0.07700   1.00
H3       0.79247    0.55180    0.06353   1.00
C4       0.52083    0.25063    0.24955   1.00
C4       0.47917    0.24937    0.25045   1.00
C3       0.54154    0.28631    0.24720   1.00
C3       0.45679    0.27684    0.27162   1.00
C3       0.54357    0.21619    0.25193   1.00
C3       0.45813    0.22088    0.22919   1.00
C2       0.60513    0.25303    0.24967   1.00
C2       0.39486    0.24728    0.25038   1.00
C3       0.58285    0.28740    0.24722   1.00
C3       0.41551    0.27571    0.27159   1.00
C3       0.58486    0.21745    0.25197   1.00
C3a      0.41672    0.21964    0.22908   1.00
H1       0.52575    0.31358    0.24497   1.00
H1       0.47125    0.29911    0.28875   1.00
H1       0.59760    0.31527    0.24530   1.00
H1       0.39944    0.29716    0.28833   1.00
H1       0.60118    0.19048    0.25404   1.00
C5       0.39620    0.18868    0.20562   1.00
H1       0.47378    0.19936    0.21220   1.00
H1       0.52941    0.18807    0.25458   1.00
H2       0.36401    0.19097    0.20895   1.00
H2       0.40295    0.19331    0.17424   1.00
N1       0.40875    0.14977    0.21793   1.00
C6       0.40356    0.13399    0.25353   1.00
C6       0.42712    0.12307    0.19571   1.00
C6       0.41898    0.09683    0.25420   1.00
C6       0.43396    0.08988    0.21742   1.00
H3       0.38951    0.14864    0.27777   1.00
H3       0.43516    0.12730    0.16546   1.00
H3       0.41924    0.07700    0.27874   1.00
H3       0.44820    0.06353    0.20753   1.00
C4       0.97917    0.25063    0.25045   1.00
C4       1.02083    0.24937    0.24955   1.00
C3       0.95846    0.28631    0.25280   1.00
C3       1.04321    0.27684    0.22838   1.00
C3       0.95643    0.21619    0.24807   1.00
C3       1.04187    0.22088    0.27081   1.00
C2       0.89487    0.25303    0.25033   1.00
C2       1.10514    0.24728    0.24962   1.00
C3       0.91715    0.28740    0.25278   1.00
C3       1.08449    0.27571    0.22841   1.00
C3       0.91514    0.21745    0.24803   1.00
C3a      1.08328    0.21964    0.27092   1.00
H1       0.97425    0.31358    0.25503   1.00
H1       1.02875    0.29911    0.21125   1.00
H1       0.90240    0.31527    0.25470   1.00
H1       1.10056    0.29716    0.21167   1.00
H1       0.89882    0.19048    0.24596   1.00
C5       1.10380    0.18868    0.29438   1.00
H1       1.02622    0.19936    0.28780   1.00
H1       0.97059    0.18807    0.24542   1.00
H2       1.13599    0.19097    0.29105   1.00
H2       1.09705    0.19331    0.32576   1.00
N1       1.09125    0.14977    0.28207   1.00
C6       1.09644    0.13399    0.24647   1.00
C6       1.07288    0.12307    0.30429   1.00
C6       1.08102    0.09683    0.24580   1.00
C6       1.06604    0.08988    0.28258   1.00
H3       1.11049    0.14864    0.22223   1.00
H3       1.06484    0.12730    0.33454   1.00
H3       1.08076    0.07700    0.22126   1.00
H3       1.05180    0.06353    0.29247   1.00
C4       0.74955    0.02083    0.25063   1.00
C4       0.75045    -0.02083   0.24937   1.00
C3       0.74720    0.04154    0.28631   1.00
C3       0.77162    -0.04321   0.27684   1.00
C3       0.75193    0.04357    0.21619   1.00
C3       0.72919    -0.04187   0.22088   1.00
C2       0.74967    0.10513    0.25303   1.00
C2       0.75038    -0.10514   0.24728   1.00
C3       0.74722    0.08285    0.28740   1.00
C3       0.77159    -0.08449   0.27571   1.00
C3       0.75197    0.08486    0.21745   1.00
C3a      0.72908    -0.08328   0.21964   1.00
H1       0.74497    0.02575    0.31358   1.00
H1       0.78875    -0.02875   0.29911   1.00
H1       0.74530    0.09760    0.31527   1.00
H1       0.78833    -0.10056   0.29716   1.00
H1       0.75404    0.10118    0.19048   1.00
C5       0.70562    -0.10380   0.18868   1.00
H1       0.71220    -0.02622   0.19936   1.00
H1       0.75458    0.02941    0.18807   1.00
H2       0.70895    -0.13599   0.19097   1.00
H2       0.67424    -0.09705   0.19331   1.00
N1       0.71793    -0.09125   0.14977   1.00
C6       0.75353    -0.09644   0.13399   1.00
C6       0.69571    -0.07288   0.12307   1.00
C6       0.75420    -0.08102   0.09683   1.00
C6       0.71742    -0.06604   0.08988   1.00
H3       0.77777    -0.11049   0.14864   1.00
H3       0.66546    -0.06484   0.12730   1.00
H3       0.77874    -0.08076   0.07700   1.00
H3       0.70753    -0.05180   0.06353   1.00
C4       0.75063    0.24955    0.02083   1.00
C4       0.74937    0.25045    -0.02083   1.00
C3       0.78631    0.24720    0.04154   1.00
C3       0.77684    0.27162    -0.04321   1.00
C3       0.71619    0.25193    0.04357   1.00
C3       0.72088    0.22919    -0.04187   1.00
C2       0.75303    0.24967    0.10513   1.00
C2       0.74728    0.25038    -0.10514   1.00
C3       0.78740    0.24722    0.08285   1.00
C3       0.77571    0.27159    -0.08449   1.00
C3       0.71745    0.25197    0.08486   1.00
C3a      0.71964    0.22908    -0.08328   1.00
H1       0.81358    0.24497    0.02575   1.00
H1       0.79911    0.28875    -0.02875   1.00
H1       0.81527    0.24530    0.09760   1.00
H1       0.79716    0.28833    -0.10056   1.00
H1       0.69048    0.25404    0.10118   1.00
C5       0.68868    0.20562    -0.10380   1.00
H1       0.69936    0.21220    -0.02622   1.00
H1       0.68807    0.25458    0.02941   1.00
H2       0.69097    0.20895    -0.13599   1.00
H2       0.69331    0.17424    -0.09705   1.00
N1       0.64977    0.21793    -0.09125   1.00
C6       0.63399    0.25353    -0.09644   1.00
C6       0.62307    0.19571    -0.07288   1.00
C6       0.59683    0.25420    -0.08102   1.00
C6       0.58988    0.21742    -0.06604   1.00
H3       0.64864    0.27777    -0.11049   1.00
H3       0.62730    0.16546    -0.06484   1.00
H3       0.57700    0.27874    -0.08076   1.00
H3       0.56353    0.20753    -0.05180   1.00
C4       0.91563    0.91545    1.14417   1.00
C4       0.91437    0.91455    1.18583   1.00
C3       0.95131    0.91780    1.12346   1.00
C3       0.94184    0.89338    1.20821   1.00
C3       0.88119    0.91307    1.12143   1.00
C3       0.88588    0.93581    1.20687   1.00
C2       0.91803    0.91533    1.05987   1.00
C2       0.91228    0.91462    1.27014   1.00
C3       0.95240    0.91778    1.08215   1.00
C3       0.94071    0.89341    1.24949   1.00
C3       0.88245    0.91303    1.08014   1.00
C3a      0.88464    0.93592    1.24828   1.00
H1       0.97858    0.92003    1.13925   1.00
H1       0.96411    0.87625    1.19375   1.00
H1       0.98027    0.91970    1.06740   1.00
H1       0.96216    0.87667    1.26556   1.00
H1       0.85548    0.91096    1.06382   1.00
C5       0.85368    0.95938    1.26880   1.00
H1       0.86436    0.95280    1.19122   1.00
H1       0.85307    0.91042    1.13559   1.00
H2       0.85597    0.95605    1.30099   1.00
H2       0.85831    0.99076    1.26205   1.00
N1       0.81477    0.94707    1.25625   1.00
C6       0.79899    0.91147    1.26144   1.00
C6       0.78807    0.96929    1.23788   1.00
C6       0.76183    0.91080    1.24602   1.00
C6       0.75488    0.94758    1.23104   1.00
H3       0.81364    0.88723    1.27549   1.00
H3       0.79230    0.99954    1.22984   1.00
H3       0.74200    0.88626    1.24576   1.00
H3       0.72853    0.95747    1.21680   1.00
C4       0.91545    1.14417    0.91563   1.00
C4       0.91455    1.18583    0.91437   1.00
C3       0.91780    1.12346    0.95131   1.00
C3       0.89338    1.20821    0.94184   1.00
C3       0.91307    1.12143    0.88119   1.00
C3       0.93581    1.20687    0.88588   1.00
C2       0.91533    1.05987    0.91803   1.00
C2       0.91462    1.27014    0.91228   1.00
C3       0.91778    1.08215    0.95240   1.00
C3       0.89341    1.24949    0.94071   1.00
C3       0.91303    1.08014    0.88245   1.00
C3a      0.93592    1.24828    0.88464   1.00
H1       0.92003    1.13925    0.97858   1.00
H1       0.87625    1.19375    0.96411   1.00
H1       0.91970    1.06740    0.98027   1.00
H1       0.87667    1.26556    0.96216   1.00
H1       0.91096    1.06382    0.85548   1.00
C5       0.95938    1.26880    0.85368   1.00
H1       0.95280    1.19122    0.86436   1.00
H1       0.91042    1.13559    0.85307   1.00
H2       0.95605    1.30099    0.85597   1.00
H2       0.99076    1.26205    0.85831   1.00
N1       0.94707    1.25625    0.81477   1.00
C6       0.91147    1.26144    0.79899   1.00
C6       0.96929    1.23788    0.78807   1.00
C6       0.91080    1.24602    0.76183   1.00
C6       0.94758    1.23104    0.75488   1.00
H3       0.88723    1.27549    0.81364   1.00
H3       0.99954    1.22984    0.79230   1.00
H3       0.88626    1.24576    0.74200   1.00
H3       0.95747    1.21680    0.72853   1.00
C4       0.68583    0.91563    0.91455   1.00
C4       0.64417    0.91437    0.91545   1.00
C3       0.70654    0.95131    0.91220   1.00
C3       0.62179    0.94184    0.93662   1.00
C3       0.70857    0.88119    0.91693   1.00
C3       0.62313    0.88588    0.89419   1.00
C2       0.77013    0.91803    0.91467   1.00
C2       0.55986    0.91228    0.91538   1.00
C3       0.74785    0.95240    0.91222   1.00
C3       0.58051    0.94071    0.93659   1.00
C3       0.74986    0.88245    0.91697   1.00
C3a      0.58172    0.88464    0.89408   1.00
H1       0.69075    0.97858    0.90997   1.00
H1       0.63625    0.96411    0.95375   1.00
H1       0.76260    0.98027    0.91030   1.00
H1       0.56444    0.96216    0.95333   1.00
H1       0.76618    0.85548    0.91904   1.00
C5       0.56120    0.85368    0.87062   1.00
H1       0.63878    0.86436    0.87720   1.00
H1       0.69441    0.85307    0.91958   1.00
H2       0.52901    0.85597    0.87395   1.00
H2       0.56795    0.85831    0.83924   1.00
N1       0.57375    0.81477    0.88293   1.00
C6       0.56856    0.79899    0.91853   1.00
C6       0.59212    0.78807    0.86071   1.00
C6       0.58398    0.76183    0.91920   1.00
C6       0.59896    0.75488    0.88242   1.00
H3       0.55451    0.81364    0.94277   1.00
H3       0.60016    0.79230    0.83046   1.00
H3       0.58424    0.74200    0.94374   1.00
H3       0.61320    0.72853    0.87253   1.00
C4       1.14417    0.91563    0.91545   1.00
C4       1.18583    0.91437    0.91455   1.00
C3       1.12346    0.95131    0.91780   1.00
C3       1.20821    0.94184    0.89338   1.00
C3       1.12143    0.88119    0.91307   1.00
C3       1.20687    0.88588    0.93581   1.00
C2       1.05987    0.91803    0.91533   1.00
C2       1.27014    0.91228    0.91462   1.00
C3       1.08215    0.95240    0.91778   1.00
C3       1.24949    0.94071    0.89341   1.00
C3       1.08014    0.88245    0.91303   1.00
C3a      1.24828    0.88464    0.93592   1.00
H1       1.13925    0.97858    0.92003   1.00
H1       1.19375    0.96411    0.87625   1.00
H1       1.06740    0.98027    0.91970   1.00
H1       1.26556    0.96216    0.87667   1.00
H1       1.06382    0.85548    0.91096   1.00
C5       1.26880    0.85368    0.95938   1.00
H1       1.19122    0.86436    0.95280   1.00
H1       1.13559    0.85307    0.91042   1.00
H2       1.30099    0.85597    0.95605   1.00
H2       1.26205    0.85831    0.99076   1.00
N1       1.25625    0.81477    0.94707   1.00
C6       1.26144    0.79899    0.91147   1.00
C6       1.23788    0.78807    0.96929   1.00
C6       1.24602    0.76183    0.91080   1.00
C6       1.23104    0.75488    0.94758   1.00
H3       1.27549    0.81364    0.88723   1.00
H3       1.22984    0.79230    0.99954   1.00
H3       1.24576    0.74200    0.88626   1.00
H3       1.21680    0.72853    0.95747   1.00
C4       0.91455    0.68583    0.91563   1.00
C4       0.91545    0.64417    0.91437   1.00
C3       0.91220    0.70654    0.95131   1.00
C3       0.93662    0.62179    0.94184   1.00
C3       0.91693    0.70857    0.88119   1.00
C3       0.89419    0.62313    0.88588   1.00
C2       0.91467    0.77013    0.91803   1.00
C2       0.91538    0.55986    0.91228   1.00
C3       0.91222    0.74785    0.95240   1.00
C3       0.93659    0.58051    0.94071   1.00
C3       0.91697    0.74986    0.88245   1.00
C3a      0.89408    0.58172    0.88464   1.00
H1       0.90997    0.69075    0.97858   1.00
H1       0.95375    0.63625    0.96411   1.00
H1       0.91030    0.76260    0.98027   1.00
H1       0.95333    0.56444    0.96216   1.00
H1       0.91904    0.76618    0.85548   1.00
C5       0.87062    0.56120    0.85368   1.00
H1       0.87720    0.63878    0.86436   1.00
H1       0.91958    0.69441    0.85307   1.00
H2       0.87395    0.52901    0.85597   1.00
H2       0.83924    0.56795    0.85831   1.00
N1       0.88293    0.57375    0.81477   1.00
C6       0.91853    0.56856    0.79899   1.00
C6       0.86071    0.59212    0.78807   1.00
C6       0.91920    0.58398    0.76183   1.00
C6       0.88242    0.59896    0.75488   1.00
H3       0.94277    0.55451    0.81364   1.00
H3       0.83046    0.60016    0.79230   1.00
H3       0.94374    0.58424    0.74200   1.00
H3       0.87253    0.61320    0.72853   1.00
C4       0.91563    0.91455    0.68583   1.00
C4       0.91437    0.91545    0.64417   1.00
C3       0.95131    0.91220    0.70654   1.00
C3       0.94184    0.93662    0.62179   1.00
C3       0.88119    0.91693    0.70857   1.00
C3       0.88588    0.89419    0.62313   1.00
C2       0.91803    0.91467    0.77013   1.00
C2       0.91228    0.91538    0.55986   1.00
C3       0.95240    0.91222    0.74785   1.00
C3       0.94071    0.93659    0.58051   1.00
C3       0.88245    0.91697    0.74986   1.00
C3a      0.88464    0.89408    0.58172   1.00
H1       0.97858    0.90997    0.69075   1.00
H1       0.96411    0.95375    0.63625   1.00
H1       0.98027    0.91030    0.76260   1.00
H1       0.96216    0.95333    0.56444   1.00
H1       0.85548    0.91904    0.76618   1.00
C5       0.85368    0.87062    0.56120   1.00
H1       0.86436    0.87720    0.63878   1.00
H1       0.85307    0.91958    0.69441   1.00
H2       0.85597    0.87395    0.52901   1.00
H2       0.85831    0.83924    0.56795   1.00
N1       0.81477    0.88293    0.57375   1.00
C6       0.79899    0.91853    0.56856   1.00
C6       0.78807    0.86071    0.59212   1.00
C6       0.76183    0.91920    0.58398   1.00
C6       0.75488    0.88242    0.59896   1.00
H3       0.81364    0.94277    0.55451   1.00
H3       0.79230    0.83046    0.60016   1.00
H3       0.74200    0.94374    0.58424   1.00
H3       0.72853    0.87253    0.61320   1.00
C4       0.41563    0.41545    1.14417   1.00
C4       0.41437    0.41455    1.18583   1.00
C3       0.45131    0.41780    1.12346   1.00
C3       0.44184    0.39338    1.20821   1.00
C3       0.38119    0.41307    1.12143   1.00
C3       0.38588    0.43581    1.20687   1.00
C2       0.41803    0.41533    1.05987   1.00
C2       0.41228    0.41462    1.27014   1.00
C3       0.45240    0.41778    1.08215   1.00
C3       0.44071    0.39341    1.24949   1.00
C3       0.38245    0.41303    1.08014   1.00
C3a      0.38464    0.43592    1.24828   1.00
H1       0.47858    0.42003    1.13925   1.00
H1       0.46411    0.37625    1.19375   1.00
H1       0.48027    0.41970    1.06740   1.00
H1       0.46216    0.37667    1.26556   1.00
H1       0.35548    0.41096    1.06382   1.00
C5       0.35368    0.45938    1.26880   1.00
H1       0.36436    0.45280    1.19122   1.00
H1       0.35307    0.41042    1.13559   1.00
H2       0.35597    0.45605    1.30099   1.00
H2       0.35831    0.49076    1.26205   1.00
N1       0.31477    0.44707    1.25625   1.00
C6       0.29899    0.41147    1.26144   1.00
C6       0.28807    0.46929    1.23788   1.00
C6       0.26183    0.41080    1.24602   1.00
C6       0.25488    0.44758    1.23104   1.00
H3       0.31364    0.38723    1.27549   1.00
H3       0.29230    0.49954    1.22984   1.00
H3       0.24200    0.38626    1.24576   1.00
H3       0.22853    0.45747    1.21680   1.00
C4       0.41545    0.64417    0.91563   1.00
C4       0.41455    0.68583    0.91437   1.00
C3       0.41780    0.62346    0.95131   1.00
C3       0.39338    0.70821    0.94184   1.00
C3       0.41307    0.62143    0.88119   1.00
C3       0.43581    0.70687    0.88588   1.00
C2       0.41533    0.55987    0.91803   1.00
C2       0.41462    0.77014    0.91228   1.00
C3       0.41778    0.58215    0.95240   1.00
C3       0.39341    0.74949    0.94071   1.00
C3       0.41303    0.58014    0.88245   1.00
C3a      0.43592    0.74828    0.88464   1.00
H1       0.42003    0.63925    0.97858   1.00
H1       0.37625    0.69375    0.96411   1.00
H1       0.41970    0.56740    0.98027   1.00
H1       0.37667    0.76556    0.96216   1.00
H1       0.41096    0.56382    0.85548   1.00
C5       0.45938    0.76880    0.85368   1.00
H1       0.45280    0.69122    0.86436   1.00
H1       0.41042    0.63559    0.85307   1.00
H2       0.45605    0.80099    0.85597   1.00
H2       0.49076    0.76205    0.85831   1.00
N1       0.44707    0.75625    0.81477   1.00
C6       0.41147    0.76144    0.79899   1.00
C6       0.46929    0.73788    0.78807   1.00
C6       0.41080    0.74602    0.76183   1.00
C6       0.44758    0.73104    0.75488   1.00
H3       0.38723    0.77549    0.81364   1.00
H3       0.49954    0.72984    0.79230   1.00
H3       0.38626    0.74576    0.74200   1.00
H3       0.45747    0.71680    0.72853   1.00
C4       0.18583    0.41563    0.91455   1.00
C4       0.14417    0.41437    0.91545   1.00
C3       0.20654    0.45131    0.91220   1.00
C3       0.12179    0.44184    0.93662   1.00
C3       0.20857    0.38119    0.91693   1.00
C3       0.12313    0.38588    0.89419   1.00
C2       0.27013    0.41803    0.91467   1.00
C2       0.05986    0.41228    0.91538   1.00
C3       0.24785    0.45240    0.91222   1.00
C3       0.08051    0.44071    0.93659   1.00
C3       0.24986    0.38245    0.91697   1.00
C3a      0.08172    0.38464    0.89408   1.00
H1       0.19075    0.47858    0.90997   1.00
H1       0.13625    0.46411    0.95375   1.00
H1       0.26260    0.48027    0.91030   1.00
H1       0.06444    0.46216    0.95333   1.00
H1       0.26618    0.35548    0.91904   1.00
C5       0.06120    0.35368    0.87062   1.00
H1       0.13878    0.36436    0.87720   1.00
H1       0.19441    0.35307    0.91958   1.00
H2       0.02901    0.35597    0.87395   1.00
H2       0.06795    0.35831    0.83924   1.00
N1       0.07375    0.31477    0.88293   1.00
C6       0.06856    0.29899    0.91853   1.00
C6       0.09212    0.28807    0.86071   1.00
C6       0.08398    0.26183    0.91920   1.00
C6       0.09896    0.25488    0.88242   1.00
H3       0.05451    0.31364    0.94277   1.00
H3       0.10016    0.29230    0.83046   1.00
H3       0.08424    0.24200    0.94374   1.00
H3       0.11320    0.22853    0.87253   1.00
C4       0.64417    0.41563    0.91545   1.00
C4       0.68583    0.41437    0.91455   1.00
C3       0.62346    0.45131    0.91780   1.00
C3       0.70821    0.44184    0.89338   1.00
C3       0.62143    0.38119    0.91307   1.00
C3       0.70687    0.38588    0.93581   1.00
C2       0.55987    0.41803    0.91533   1.00
C2       0.77014    0.41228    0.91462   1.00
C3       0.58215    0.45240    0.91778   1.00
C3       0.74949    0.44071    0.89341   1.00
C3       0.58014    0.38245    0.91303   1.00
C3a      0.74828    0.38464    0.93592   1.00
H1       0.63925    0.47858    0.92003   1.00
H1       0.69375    0.46411    0.87625   1.00
H1       0.56740    0.48027    0.91970   1.00
H1       0.76556    0.46216    0.87667   1.00
H1       0.56382    0.35548    0.91096   1.00
C5       0.76880    0.35368    0.95938   1.00
H1       0.69122    0.36436    0.95280   1.00
H1       0.63559    0.35307    0.91042   1.00
H2       0.80099    0.35597    0.95605   1.00
H2       0.76205    0.35831    0.99076   1.00
N1       0.75625    0.31477    0.94707   1.00
C6       0.76144    0.29899    0.91147   1.00
C6       0.73788    0.28807    0.96929   1.00
C6       0.74602    0.26183    0.91080   1.00
C6       0.73104    0.25488    0.94758   1.00
H3       0.77549    0.31364    0.88723   1.00
H3       0.72984    0.29230    0.99954   1.00
H3       0.74576    0.24200    0.88626   1.00
H3       0.71680    0.22853    0.95747   1.00
C4       0.41455    0.18583    0.91563   1.00
C4       0.41545    0.14417    0.91437   1.00
C3       0.41220    0.20654    0.95131   1.00
C3       0.43662    0.12179    0.94184   1.00
C3       0.41693    0.20857    0.88119   1.00
C3       0.39419    0.12313    0.88588   1.00
C2       0.41467    0.27013    0.91803   1.00
C2       0.41538    0.05986    0.91228   1.00
C3       0.41222    0.24785    0.95240   1.00
C3       0.43659    0.08051    0.94071   1.00
C3       0.41697    0.24986    0.88245   1.00
C3a      0.39408    0.08172    0.88464   1.00
H1       0.40997    0.19075    0.97858   1.00
H1       0.45375    0.13625    0.96411   1.00
H1       0.41030    0.26260    0.98027   1.00
H1       0.45333    0.06444    0.96216   1.00
H1       0.41904    0.26618    0.85548   1.00
C5       0.37062    0.06120    0.85368   1.00
H1       0.37720    0.13878    0.86436   1.00
H1       0.41958    0.19441    0.85307   1.00
H2       0.37395    0.02901    0.85597   1.00
H2       0.33924    0.06795    0.85831   1.00
N1       0.38293    0.07375    0.81477   1.00
C6       0.41853    0.06856    0.79899   1.00
C6       0.36071    0.09212    0.78807   1.00
C6       0.41920    0.08398    0.76183   1.00
C6       0.38242    0.09896    0.75488   1.00
H3       0.44277    0.05451    0.81364   1.00
H3       0.33046    0.10016    0.79230   1.00
H3       0.44374    0.08424    0.74200   1.00
H3       0.37253    0.11320    0.72853   1.00
C4       0.41563    0.41455    0.68583   1.00
C4       0.41437    0.41545    0.64417   1.00
C3       0.45131    0.41220    0.70654   1.00
C3       0.44184    0.43662    0.62179   1.00
C3       0.38119    0.41693    0.70857   1.00
C3       0.38588    0.39419    0.62313   1.00
C2       0.41803    0.41467    0.77013   1.00
C2       0.41228    0.41538    0.55986   1.00
C3       0.45240    0.41222    0.74785   1.00
C3       0.44071    0.43659    0.58051   1.00
C3       0.38245    0.41697    0.74986   1.00
C3a      0.38464    0.39408    0.58172   1.00
H1       0.47858    0.40997    0.69075   1.00
H1       0.46411    0.45375    0.63625   1.00
H1       0.48027    0.41030    0.76260   1.00
H1       0.46216    0.45333    0.56444   1.00
H1       0.35548    0.41904    0.76618   1.00
C5       0.35368    0.37062    0.56120   1.00
H1       0.36436    0.37720    0.63878   1.00
H1       0.35307    0.41958    0.69441   1.00
H2       0.35597    0.37395    0.52901   1.00
H2       0.35831    0.33924    0.56795   1.00
N1       0.31477    0.38293    0.57375   1.00
C6       0.29899    0.41853    0.56856   1.00
C6       0.28807    0.36071    0.59212   1.00
C6       0.26183    0.41920    0.58398   1.00
C6       0.25488    0.38242    0.59896   1.00
H3       0.31364    0.44277    0.55451   1.00
H3       0.29230    0.33046    0.60016   1.00
H3       0.24200    0.44374    0.58424   1.00
H3       0.22853    0.37253    0.61320   1.00
C4       0.41563    0.91545    0.64417   1.00
C4       0.41437    0.91455    0.68583   1.00
C3       0.45131    0.91780    0.62346   1.00
C3       0.44184    0.89338    0.70821   1.00
C3       0.38119    0.91307    0.62143   1.00
C3       0.38588    0.93581    0.70687   1.00
C2       0.41803    0.91533    0.55987   1.00
C2       0.41228    0.91462    0.77014   1.00
C3       0.45240    0.91778    0.58215   1.00
C3       0.44071    0.89341    0.74949   1.00
C3       0.38245    0.91303    0.58014   1.00
C3a      0.38464    0.93592    0.74828   1.00
H1       0.47858    0.92003    0.63925   1.00
H1       0.46411    0.87625    0.69375   1.00
H1       0.48027    0.91970    0.56740   1.00
H1       0.46216    0.87667    0.76556   1.00
H1       0.35548    0.91096    0.56382   1.00
C5       0.35368    0.95938    0.76880   1.00
H1       0.36436    0.95280    0.69122   1.00
H1       0.35307    0.91042    0.63559   1.00
H2       0.35597    0.95605    0.80099   1.00
H2       0.35831    0.99076    0.76205   1.00
N1       0.31477    0.94707    0.75625   1.00
C6       0.29899    0.91147    0.76144   1.00
C6       0.28807    0.96929    0.73788   1.00
C6       0.26183    0.91080    0.74602   1.00
C6       0.25488    0.94758    0.73104   1.00
H3       0.31364    0.88723    0.77549   1.00
H3       0.29230    0.99954    0.72984   1.00
H3       0.24200    0.88626    0.74576   1.00
H3       0.22853    0.95747    0.71680   1.00
C4       0.41545    1.14417    0.41563   1.00
C4       0.41455    1.18583    0.41437   1.00
C3       0.41780    1.12346    0.45131   1.00
C3       0.39338    1.20821    0.44184   1.00
C3       0.41307    1.12143    0.38119   1.00
C3       0.43581    1.20687    0.38588   1.00
C2       0.41533    1.05987    0.41803   1.00
C2       0.41462    1.27014    0.41228   1.00
C3       0.41778    1.08215    0.45240   1.00
C3       0.39341    1.24949    0.44071   1.00
C3       0.41303    1.08014    0.38245   1.00
C3a      0.43592    1.24828    0.38464   1.00
H1       0.42003    1.13925    0.47858   1.00
H1       0.37625    1.19375    0.46411   1.00
H1       0.41970    1.06740    0.48027   1.00
H1       0.37667    1.26556    0.46216   1.00
H1       0.41096    1.06382    0.35548   1.00
C5       0.45938    1.26880    0.35368   1.00
H1       0.45280    1.19122    0.36436   1.00
H1       0.41042    1.13559    0.35307   1.00
H2       0.45605    1.30099    0.35597   1.00
H2       0.49076    1.26205    0.35831   1.00
N1       0.44707    1.25625    0.31477   1.00
C6       0.41147    1.26144    0.29899   1.00
C6       0.46929    1.23788    0.28807   1.00
C6       0.41080    1.24602    0.26183   1.00
C6       0.44758    1.23104    0.25488   1.00
H3       0.38723    1.27549    0.31364   1.00
H3       0.49954    1.22984    0.29230   1.00
H3       0.38626    1.24576    0.24200   1.00
H3       0.45747    1.21680    0.22853   1.00
C4       0.18583    0.91563    0.41455   1.00
C4       0.14417    0.91437    0.41545   1.00
C3       0.20654    0.95131    0.41220   1.00
C3       0.12179    0.94184    0.43662   1.00
C3       0.20857    0.88119    0.41693   1.00
C3       0.12313    0.88588    0.39419   1.00
C2       0.27013    0.91803    0.41467   1.00
C2       0.05986    0.91228    0.41538   1.00
C3       0.24785    0.95240    0.41222   1.00
C3       0.08051    0.94071    0.43659   1.00
C3       0.24986    0.88245    0.41697   1.00
C3a      0.08172    0.88464    0.39408   1.00
H1       0.19075    0.97858    0.40997   1.00
H1       0.13625    0.96411    0.45375   1.00
H1       0.26260    0.98027    0.41030   1.00
H1       0.06444    0.96216    0.45333   1.00
H1       0.26618    0.85548    0.41904   1.00
C5       0.06120    0.85368    0.37062   1.00
H1       0.13878    0.86436    0.37720   1.00
H1       0.19441    0.85307    0.41958   1.00
H2       0.02901    0.85597    0.37395   1.00
H2       0.06795    0.85831    0.33924   1.00
N1       0.07375    0.81477    0.38293   1.00
C6       0.06856    0.79899    0.41853   1.00
C6       0.09212    0.78807    0.36071   1.00
C6       0.08398    0.76183    0.41920   1.00
C6       0.09896    0.75488    0.38242   1.00
H3       0.05451    0.81364    0.44277   1.00
H3       0.10016    0.79230    0.33046   1.00
H3       0.08424    0.74200    0.44374   1.00
H3       0.11320    0.72853    0.37253   1.00
C4       0.64417    0.91563    0.41545   1.00
C4       0.68583    0.91437    0.41455   1.00
C3       0.62346    0.95131    0.41780   1.00
C3       0.70821    0.94184    0.39338   1.00
C3       0.62143    0.88119    0.41307   1.00
C3       0.70687    0.88588    0.43581   1.00
C2       0.55987    0.91803    0.41533   1.00
C2       0.77014    0.91228    0.41462   1.00
C3       0.58215    0.95240    0.41778   1.00
C3       0.74949    0.94071    0.39341   1.00
C3       0.58014    0.88245    0.41303   1.00
C3a      0.74828    0.88464    0.43592   1.00
H1       0.63925    0.97858    0.42003   1.00
H1       0.69375    0.96411    0.37625   1.00
H1       0.56740    0.98027    0.41970   1.00
H1       0.76556    0.96216    0.37667   1.00
H1       0.56382    0.85548    0.41096   1.00
C5       0.76880    0.85368    0.45938   1.00
H1       0.69122    0.86436    0.45280   1.00
H1       0.63559    0.85307    0.41042   1.00
H2       0.80099    0.85597    0.45605   1.00
H2       0.76205    0.85831    0.49076   1.00
N1       0.75625    0.81477    0.44707   1.00
C6       0.76144    0.79899    0.41147   1.00
C6       0.73788    0.78807    0.46929   1.00
C6       0.74602    0.76183    0.41080   1.00
C6       0.73104    0.75488    0.44758   1.00
H3       0.77549    0.81364    0.38723   1.00
H3       0.72984    0.79230    0.49954   1.00
H3       0.74576    0.74200    0.38626   1.00
H3       0.71680    0.72853    0.45747   1.00
C4       0.41455    0.68583    0.41563   1.00
C4       0.41545    0.64417    0.41437   1.00
C3       0.41220    0.70654    0.45131   1.00
C3       0.43662    0.62179    0.44184   1.00
C3       0.41693    0.70857    0.38119   1.00
C3       0.39419    0.62313    0.38588   1.00
C2       0.41467    0.77013    0.41803   1.00
C2       0.41538    0.55986    0.41228   1.00
C3       0.41222    0.74785    0.45240   1.00
C3       0.43659    0.58051    0.44071   1.00
C3       0.41697    0.74986    0.38245   1.00
C3a      0.39408    0.58172    0.38464   1.00
H1       0.40997    0.69075    0.47858   1.00
H1       0.45375    0.63625    0.46411   1.00
H1       0.41030    0.76260    0.48027   1.00
H1       0.45333    0.56444    0.46216   1.00
H1       0.41904    0.76618    0.35548   1.00
C5       0.37062    0.56120    0.35368   1.00
H1       0.37720    0.63878    0.36436   1.00
H1       0.41958    0.69441    0.35307   1.00
H2       0.37395    0.52901    0.35597   1.00
H2       0.33924    0.56795    0.35831   1.00
N1       0.38293    0.57375    0.31477   1.00
C6       0.41853    0.56856    0.29899   1.00
C6       0.36071    0.59212    0.28807   1.00
C6       0.41920    0.58398    0.26183   1.00
C6       0.38242    0.59896    0.25488   1.00
H3       0.44277    0.55451    0.31364   1.00
H3       0.33046    0.60016    0.29230   1.00
H3       0.44374    0.58424    0.24200   1.00
H3       0.37253    0.61320    0.22853   1.00
C4       0.41563    0.91455    0.18583   1.00
C4       0.41437    0.91545    0.14417   1.00
C3       0.45131    0.91220    0.20654   1.00
C3       0.44184    0.93662    0.12179   1.00
C3       0.38119    0.91693    0.20857   1.00
C3       0.38588    0.89419    0.12313   1.00
C2       0.41803    0.91467    0.27013   1.00
C2       0.41228    0.91538    0.05986   1.00
C3       0.45240    0.91222    0.24785   1.00
C3       0.44071    0.93659    0.08051   1.00
C3       0.38245    0.91697    0.24986   1.00
C3a      0.38464    0.89408    0.08172   1.00
H1       0.47858    0.90997    0.19075   1.00
H1       0.46411    0.95375    0.13625   1.00
H1       0.48027    0.91030    0.26260   1.00
H1       0.46216    0.95333    0.06444   1.00
H1       0.35548    0.91904    0.26618   1.00
C5       0.35368    0.87062    0.06120   1.00
H1       0.36436    0.87720    0.13878   1.00
H1       0.35307    0.91958    0.19441   1.00
H2       0.35597    0.87395    0.02901   1.00
H2       0.35831    0.83924    0.06795   1.00
N1       0.31477    0.88293    0.07375   1.00
C6       0.29899    0.91853    0.06856   1.00
C6       0.28807    0.86071    0.09212   1.00
C6       0.26183    0.91920    0.08398   1.00
C6       0.25488    0.88242    0.09896   1.00
H3       0.31364    0.94277    0.05451   1.00
H3       0.29230    0.83046    0.10016   1.00
H3       0.24200    0.94374    0.08424   1.00
H3       0.22853    0.87253    0.11320   1.00
C4       0.91563    0.41545    0.64417   1.00
C4       0.91437    0.41455    0.68583   1.00
C3       0.95131    0.41780    0.62346   1.00
C3       0.94184    0.39338    0.70821   1.00
C3       0.88119    0.41307    0.62143   1.00
C3       0.88588    0.43581    0.70687   1.00
C2       0.91803    0.41533    0.55987   1.00
C2       0.91228    0.41462    0.77014   1.00
C3       0.95240    0.41778    0.58215   1.00
C3       0.94071    0.39341    0.74949   1.00
C3       0.88245    0.41303    0.58014   1.00
C3a      0.88464    0.43592    0.74828   1.00
H1       0.97858    0.42003    0.63925   1.00
H1       0.96411    0.37625    0.69375   1.00
H1       0.98027    0.41970    0.56740   1.00
H1       0.96216    0.37667    0.76556   1.00
H1       0.85548    0.41096    0.56382   1.00
C5       0.85368    0.45938    0.76880   1.00
H1       0.86436    0.45280    0.69122   1.00
H1       0.85307    0.41042    0.63559   1.00
H2       0.85597    0.45605    0.80099   1.00
H2       0.85831    0.49076    0.76205   1.00
N1       0.81477    0.44707    0.75625   1.00
C6       0.79899    0.41147    0.76144   1.00
C6       0.78807    0.46929    0.73788   1.00
C6       0.76183    0.41080    0.74602   1.00
C6       0.75488    0.44758    0.73104   1.00
H3       0.81364    0.38723    0.77549   1.00
H3       0.79230    0.49954    0.72984   1.00
H3       0.74200    0.38626    0.74576   1.00
H3       0.72853    0.45747    0.71680   1.00
C4       0.91545    0.64417    0.41563   1.00
C4       0.91455    0.68583    0.41437   1.00
C3       0.91780    0.62346    0.45131   1.00
C3       0.89338    0.70821    0.44184   1.00
C3       0.91307    0.62143    0.38119   1.00
C3       0.93581    0.70687    0.38588   1.00
C2       0.91533    0.55987    0.41803   1.00
C2       0.91462    0.77014    0.41228   1.00
C3       0.91778    0.58215    0.45240   1.00
C3       0.89341    0.74949    0.44071   1.00
C3       0.91303    0.58014    0.38245   1.00
C3a      0.93592    0.74828    0.38464   1.00
H1       0.92003    0.63925    0.47858   1.00
H1       0.87625    0.69375    0.46411   1.00
H1       0.91970    0.56740    0.48027   1.00
H1       0.87667    0.76556    0.46216   1.00
H1       0.91096    0.56382    0.35548   1.00
C5       0.95938    0.76880    0.35368   1.00
H1       0.95280    0.69122    0.36436   1.00
H1       0.91042    0.63559    0.35307   1.00
H2       0.95605    0.80099    0.35597   1.00
H2       0.99076    0.76205    0.35831   1.00
N1       0.94707    0.75625    0.31477   1.00
C6       0.91147    0.76144    0.29899   1.00
C6       0.96929    0.73788    0.28807   1.00
C6       0.91080    0.74602    0.26183   1.00
C6       0.94758    0.73104    0.25488   1.00
H3       0.88723    0.77549    0.31364   1.00
H3       0.99954    0.72984    0.29230   1.00
H3       0.88626    0.74576    0.24200   1.00
H3       0.95747    0.71680    0.22853   1.00
C4       0.68583    0.41563    0.41455   1.00
C4       0.64417    0.41437    0.41545   1.00
C3       0.70654    0.45131    0.41220   1.00
C3       0.62179    0.44184    0.43662   1.00
C3       0.70857    0.38119    0.41693   1.00
C3       0.62313    0.38588    0.39419   1.00
C2       0.77013    0.41803    0.41467   1.00
C2       0.55986    0.41228    0.41538   1.00
C3       0.74785    0.45240    0.41222   1.00
C3       0.58051    0.44071    0.43659   1.00
C3       0.74986    0.38245    0.41697   1.00
C3a      0.58172    0.38464    0.39408   1.00
H1       0.69075    0.47858    0.40997   1.00
H1       0.63625    0.46411    0.45375   1.00
H1       0.76260    0.48027    0.41030   1.00
H1       0.56444    0.46216    0.45333   1.00
H1       0.76618    0.35548    0.41904   1.00
C5       0.56120    0.35368    0.37062   1.00
H1       0.63878    0.36436    0.37720   1.00
H1       0.69441    0.35307    0.41958   1.00
H2       0.52901    0.35597    0.37395   1.00
H2       0.56795    0.35831    0.33924   1.00
N1       0.57375    0.31477    0.38293   1.00
C6       0.56856    0.29899    0.41853   1.00
C6       0.59212    0.28807    0.36071   1.00
C6       0.58398    0.26183    0.41920   1.00
C6       0.59896    0.25488    0.38242   1.00
H3       0.55451    0.31364    0.44277   1.00
H3       0.60016    0.29230    0.33046   1.00
H3       0.58424    0.24200    0.44374   1.00
H3       0.61320    0.22853    0.37253   1.00
C4       1.14417    0.41563    0.41545   1.00
C4       1.18583    0.41437    0.41455   1.00
C3       1.12346    0.45131    0.41780   1.00
C3       1.20821    0.44184    0.39338   1.00
C3       1.12143    0.38119    0.41307   1.00
C3       1.20687    0.38588    0.43581   1.00
C2       1.05987    0.41803    0.41533   1.00
C2       1.27014    0.41228    0.41462   1.00
C3       1.08215    0.45240    0.41778   1.00
C3       1.24949    0.44071    0.39341   1.00
C3       1.08014    0.38245    0.41303   1.00
C3a      1.24828    0.38464    0.43592   1.00
H1       1.13925    0.47858    0.42003   1.00
H1       1.19375    0.46411    0.37625   1.00
H1       1.06740    0.48027    0.41970   1.00
H1       1.26556    0.46216    0.37667   1.00
H1       1.06382    0.35548    0.41096   1.00
C5       1.26880    0.35368    0.45938   1.00
H1       1.19122    0.36436    0.45280   1.00
H1       1.13559    0.35307    0.41042   1.00
H2       1.30099    0.35597    0.45605   1.00
H2       1.26205    0.35831    0.49076   1.00
N1       1.25625    0.31477    0.44707   1.00
C6       1.26144    0.29899    0.41147   1.00
C6       1.23788    0.28807    0.46929   1.00
C6       1.24602    0.26183    0.41080   1.00
C6       1.23104    0.25488    0.44758   1.00
H3       1.27549    0.31364    0.38723   1.00
H3       1.22984    0.29230    0.49954   1.00
H3       1.24576    0.24200    0.38626   1.00
H3       1.21680    0.22853    0.45747   1.00
C4       0.91455    0.18583    0.41563   1.00
C4       0.91545    0.14417    0.41437   1.00
C3       0.91220    0.20654    0.45131   1.00
C3       0.93662    0.12179    0.44184   1.00
C3       0.91693    0.20857    0.38119   1.00
C3       0.89419    0.12313    0.38588   1.00
C2       0.91467    0.27013    0.41803   1.00
C2       0.91538    0.05986    0.41228   1.00
C3       0.91222    0.24785    0.45240   1.00
C3       0.93659    0.08051    0.44071   1.00
C3       0.91697    0.24986    0.38245   1.00
C3a      0.89408    0.08172    0.38464   1.00
H1       0.90997    0.19075    0.47858   1.00
H1       0.95375    0.13625    0.46411   1.00
H1       0.91030    0.26260    0.48027   1.00
H1       0.95333    0.06444    0.46216   1.00
H1       0.91904    0.26618    0.35548   1.00
C5       0.87062    0.06120    0.35368   1.00
H1       0.87720    0.13878    0.36436   1.00
H1       0.91958    0.19441    0.35307   1.00
H2       0.87395    0.02901    0.35597   1.00
H2       0.83924    0.06795    0.35831   1.00
N1       0.88293    0.07375    0.31477   1.00
C6       0.91853    0.06856    0.29899   1.00
C6       0.86071    0.09212    0.28807   1.00
C6       0.91920    0.08398    0.26183   1.00
C6       0.88242    0.09896    0.25488   1.00
H3       0.94277    0.05451    0.31364   1.00
H3       0.83046    0.10016    0.29230   1.00
H3       0.94374    0.08424    0.24200   1.00
H3       0.87253    0.11320    0.22853   1.00
C4       0.91563    0.41455    0.18583   1.00
C4       0.91437    0.41545    0.14417   1.00
C3       0.95131    0.41220    0.20654   1.00
C3       0.94184    0.43662    0.12179   1.00
C3       0.88119    0.41693    0.20857   1.00
C3       0.88588    0.39419    0.12313   1.00
C2       0.91803    0.41467    0.27013   1.00
C2       0.91228    0.41538    0.05986   1.00
C3       0.95240    0.41222    0.24785   1.00
C3       0.94071    0.43659    0.08051   1.00
C3       0.88245    0.41697    0.24986   1.00
C3a      0.88464    0.39408    0.08172   1.00
H1       0.97858    0.40997    0.19075   1.00
H1       0.96411    0.45375    0.13625   1.00
H1       0.98027    0.41030    0.26260   1.00
H1       0.96216    0.45333    0.06444   1.00
H1       0.85548    0.41904    0.26618   1.00
C5       0.85368    0.37062    0.06120   1.00
H1       0.86436    0.37720    0.13878   1.00
H1       0.85307    0.41958    0.19441   1.00
H2       0.85597    0.37395    0.02901   1.00
H2       0.85831    0.33924    0.06795   1.00
N1       0.81477    0.38293    0.07375   1.00
C6       0.79899    0.41853    0.06856   1.00
C6       0.78807    0.36071    0.09212   1.00
C6       0.76183    0.41920    0.08398   1.00
C6       0.75488    0.38242    0.09896   1.00
H3       0.81364    0.44277    0.05451   1.00
H3       0.79230    0.33046    0.10016   1.00
H3       0.74200    0.44374    0.08424   1.00
H3       0.72853    0.37253    0.11320   1.00
