data_IRMOF10_SG202_interpen_Ligand10cp_label_m.

_audit_creation_method             'generated by an auxiliary program of Tobunporous'

_symmetry_space_group_name_H-M     'P 1'
_symmetry_Int_Tables_number        1
_symmetry_cell_setting             triclinic

_cell_length_a                    34.2800
_cell_length_b                    34.2800
_cell_length_c                    34.2800
_cell_angle_alpha                 90.0000
_cell_angle_beta                  90.0000
_cell_angle_gamma                 90.0000

loop_
_atom_site_label
_atom_site_fract_x
_atom_site_fract_y
_atom_site_fract_z
_atom_site_occupancy
O1       0.75000    0.75000    0.75000   1.00
Zn1      0.71720    0.78280    0.78280   1.00
Zn1      0.78280    0.71720    0.78280   1.00
Zn1      0.78280    0.78280    0.71720   1.00
Zn1      0.71720    0.71720    0.71720   1.00
O2       0.72650    0.77350    0.83820   1.00
O2       0.72650    0.83820    0.77350   1.00
O2       0.66180    0.77350    0.77350   1.00
O2       0.77350    0.72650    0.83820   1.00
O2       0.83820    0.72650    0.77350   1.00
O2       0.77350    0.66180    0.77350   1.00
O2       0.77350    0.83820    0.72650   1.00
O2       0.83820    0.77350    0.72650   1.00
O2       0.77350    0.77350    0.66180   1.00
O2       0.66180    0.72650    0.72650   1.00
O2       0.72650    0.66180    0.72650   1.00
O2       0.72650    0.72650    0.66180   1.00
C1       0.75000    0.75000    0.85520   1.00
C1       0.75000    0.85520    0.75000   1.00
C1       0.64480    0.75000    0.75000   1.00
C1       0.85520    0.75000    0.75000   1.00
C1       0.75000    0.64480    0.75000   1.00
C1       0.75000    0.75000    0.64480   1.00
O1       0.25000    0.25000    0.75000   1.00
Zn1      0.21720    0.28280    0.78280   1.00
Zn1      0.28280    0.21720    0.78280   1.00
Zn1      0.28280    0.28280    0.71720   1.00
Zn1      0.21720    0.21720    0.71720   1.00
O2       0.22650    0.27350    0.83820   1.00
O2       0.22650    0.33820    0.77350   1.00
O2       0.16180    0.27350    0.77350   1.00
O2       0.27350    0.22650    0.83820   1.00
O2       0.33820    0.22650    0.77350   1.00
O2       0.27350    0.16180    0.77350   1.00
O2       0.27350    0.33820    0.72650   1.00
O2       0.33820    0.27350    0.72650   1.00
O2       0.27350    0.27350    0.66180   1.00
O2       0.16180    0.22650    0.72650   1.00
O2       0.22650    0.16180    0.72650   1.00
O2       0.22650    0.22650    0.66180   1.00
C1       0.25000    0.25000    0.85520   1.00
C1       0.25000    0.35520    0.75000   1.00
C1       0.14480    0.25000    0.75000   1.00
C1       0.35520    0.25000    0.75000   1.00
C1       0.25000    0.14480    0.75000   1.00
C1       0.25000    0.25000    0.64480   1.00
O1       0.25000    0.75000    0.25000   1.00
Zn1      0.21720    0.78280    0.28280   1.00
Zn1      0.28280    0.71720    0.28280   1.00
Zn1      0.28280    0.78280    0.21720   1.00
Zn1      0.21720    0.71720    0.21720   1.00
O2       0.22650    0.77350    0.33820   1.00
O2       0.22650    0.83820    0.27350   1.00
O2       0.16180    0.77350    0.27350   1.00
O2       0.27350    0.72650    0.33820   1.00
O2       0.33820    0.72650    0.27350   1.00
O2       0.27350    0.66180    0.27350   1.00
O2       0.27350    0.83820    0.22650   1.00
O2       0.33820    0.77350    0.22650   1.00
O2       0.27350    0.77350    0.16180   1.00
O2       0.16180    0.72650    0.22650   1.00
O2       0.22650    0.66180    0.22650   1.00
O2       0.22650    0.72650    0.16180   1.00
C1       0.25000    0.75000    0.35520   1.00
C1       0.25000    0.85520    0.25000   1.00
C1       0.14480    0.75000    0.25000   1.00
C1       0.35520    0.75000    0.25000   1.00
C1       0.25000    0.64480    0.25000   1.00
C1       0.25000    0.75000    0.14480   1.00
O1       0.75000    0.25000    0.25000   1.00
Zn1      0.71720    0.28280    0.28280   1.00
Zn1      0.78280    0.21720    0.28280   1.00
Zn1      0.78280    0.28280    0.21720   1.00
Zn1      0.71720    0.21720    0.21720   1.00
O2       0.72650    0.27350    0.33820   1.00
O2       0.72650    0.33820    0.27350   1.00
O2       0.66180    0.27350    0.27350   1.00
O2       0.77350    0.22650    0.33820   1.00
O2       0.83820    0.22650    0.27350   1.00
O2       0.77350    0.16180    0.27350   1.00
O2       0.77350    0.33820    0.22650   1.00
O2       0.83820    0.27350    0.22650   1.00
O2       0.77350    0.27350    0.16180   1.00
O2       0.66180    0.22650    0.22650   1.00
O2       0.72650    0.16180    0.22650   1.00
O2       0.72650    0.22650    0.16180   1.00
C1       0.75000    0.25000    0.35520   1.00
C1       0.75000    0.35520    0.25000   1.00
C1       0.64480    0.25000    0.25000   1.00
C1       0.85520    0.25000    0.25000   1.00
C1       0.75000    0.14480    0.25000   1.00
C1       0.75000    0.25000    0.14480   1.00
O1       0.25000    0.25000    0.25000   1.00
Zn1      0.28280    0.21720    0.21720   1.00
Zn1      0.21720    0.28280    0.21720   1.00
Zn1      0.21720    0.21720    0.28280   1.00
Zn1      0.28280    0.28280    0.28280   1.00
O2       0.27350    0.22650    0.16180   1.00
O2       0.27350    0.16180    0.22650   1.00
O2       0.33820    0.22650    0.22650   1.00
O2       0.22650    0.27350    0.16180   1.00
O2       0.16180    0.27350    0.22650   1.00
O2       0.22650    0.33820    0.22650   1.00
O2       0.22650    0.16180    0.27350   1.00
O2       0.16180    0.22650    0.27350   1.00
O2       0.22650    0.22650    0.33820   1.00
O2       0.33820    0.27350    0.27350   1.00
O2       0.27350    0.33820    0.27350   1.00
O2       0.27350    0.27350    0.33820   1.00
C1       0.25000    0.25000    0.14480   1.00
C1       0.25000    0.14480    0.25000   1.00
C1       0.35520    0.25000    0.25000   1.00
C1       0.14480    0.25000    0.25000   1.00
C1       0.25000    0.35520    0.25000   1.00
C1       0.25000    0.25000    0.35520   1.00
O1       0.75000    0.75000    0.25000   1.00
Zn1      0.78280    0.71720    0.21720   1.00
Zn1      0.71720    0.78280    0.21720   1.00
Zn1      0.71720    0.71720    0.28280   1.00
Zn1      0.78280    0.78280    0.28280   1.00
O2       0.77350    0.72650    0.16180   1.00
O2       0.77350    0.66180    0.22650   1.00
O2       0.83820    0.72650    0.22650   1.00
O2       0.72650    0.77350    0.16180   1.00
O2       0.66180    0.77350    0.22650   1.00
O2       0.72650    0.83820    0.22650   1.00
O2       0.72650    0.66180    0.27350   1.00
O2       0.66180    0.72650    0.27350   1.00
O2       0.72650    0.72650    0.33820   1.00
O2       0.83820    0.77350    0.27350   1.00
O2       0.77350    0.83820    0.27350   1.00
O2       0.77350    0.77350    0.33820   1.00
C1       0.75000    0.75000    0.14480   1.00
C1       0.75000    0.64480    0.25000   1.00
C1       0.85520    0.75000    0.25000   1.00
C1       0.64480    0.75000    0.25000   1.00
C1       0.75000    0.85520    0.25000   1.00
C1       0.75000    0.75000    0.35520   1.00
O1       0.75000    0.25000    0.75000   1.00
Zn1      0.78280    0.21720    0.71720   1.00
Zn1      0.71720    0.28280    0.71720   1.00
Zn1      0.71720    0.21720    0.78280   1.00
Zn1      0.78280    0.28280    0.78280   1.00
O2       0.77350    0.22650    0.66180   1.00
O2       0.77350    0.16180    0.72650   1.00
O2       0.83820    0.22650    0.72650   1.00
O2       0.72650    0.27350    0.66180   1.00
O2       0.66180    0.27350    0.72650   1.00
O2       0.72650    0.33820    0.72650   1.00
O2       0.72650    0.16180    0.77350   1.00
O2       0.66180    0.22650    0.77350   1.00
O2       0.72650    0.22650    0.83820   1.00
O2       0.83820    0.27350    0.77350   1.00
O2       0.77350    0.33820    0.77350   1.00
O2       0.77350    0.27350    0.83820   1.00
C1       0.75000    0.25000    0.64480   1.00
C1       0.75000    0.14480    0.75000   1.00
C1       0.85520    0.25000    0.75000   1.00
C1       0.64480    0.25000    0.75000   1.00
C1       0.75000    0.35520    0.75000   1.00
C1       0.75000    0.25000    0.85520   1.00
O1       0.25000    0.75000    0.75000   1.00
Zn1      0.28280    0.71720    0.71720   1.00
Zn1      0.21720    0.78280    0.71720   1.00
Zn1      0.21720    0.71720    0.78280   1.00
Zn1      0.28280    0.78280    0.78280   1.00
O2       0.27350    0.72650    0.66180   1.00
O2       0.27350    0.66180    0.72650   1.00
O2       0.33820    0.72650    0.72650   1.00
O2       0.22650    0.77350    0.66180   1.00
O2       0.16180    0.77350    0.72650   1.00
O2       0.22650    0.83820    0.72650   1.00
O2       0.22650    0.66180    0.77350   1.00
O2       0.16180    0.72650    0.77350   1.00
O2       0.22650    0.72650    0.83820   1.00
O2       0.33820    0.77350    0.77350   1.00
O2       0.27350    0.83820    0.77350   1.00
O2       0.27350    0.77350    0.83820   1.00
C1       0.25000    0.75000    0.64480   1.00
C1       0.25000    0.64480    0.75000   1.00
C1       0.35520    0.75000    0.75000   1.00
C1       0.14480    0.75000    0.75000   1.00
C1       0.25000    0.85520    0.75000   1.00
C1       0.25000    0.75000    0.85520   1.00
O1       0.91500    0.91500    0.91500   1.00
Zn1      0.88220    0.94780    0.94780   1.00
Zn1      0.94780    0.88220    0.94780   1.00
Zn1      0.94780    0.94780    0.88220   1.00
Zn1      0.88220    0.88220    0.88220   1.00
O2       0.89150    0.93850    1.00320   1.00
O2       0.89150    1.00320    0.93850   1.00
O2       0.82680    0.93850    0.93850   1.00
O2       0.93850    0.89150    1.00320   1.00
O2       1.00320    0.89150    0.93850   1.00
O2       0.93850    0.82680    0.93850   1.00
O2       0.93850    1.00320    0.89150   1.00
O2       1.00320    0.93850    0.89150   1.00
O2       0.93850    0.93850    0.82680   1.00
O2       0.82680    0.89150    0.89150   1.00
O2       0.89150    0.82680    0.89150   1.00
O2       0.89150    0.89150    0.82680   1.00
C1       0.91500    0.91500    1.02020   1.00
C1       0.91500    1.02020    0.91500   1.00
C1       0.80980    0.91500    0.91500   1.00
C1       1.02020    0.91500    0.91500   1.00
C1       0.91500    0.80980    0.91500   1.00
C1       0.91500    0.91500    0.80980   1.00
O1       0.41500    0.41500    0.91500   1.00
Zn1      0.38220    0.44780    0.94780   1.00
Zn1      0.44780    0.38220    0.94780   1.00
Zn1      0.44780    0.44780    0.88220   1.00
Zn1      0.38220    0.38220    0.88220   1.00
O2       0.39150    0.43850    1.00320   1.00
O2       0.39150    0.50320    0.93850   1.00
O2       0.32680    0.43850    0.93850   1.00
O2       0.43850    0.39150    1.00320   1.00
O2       0.50320    0.39150    0.93850   1.00
O2       0.43850    0.32680    0.93850   1.00
O2       0.43850    0.50320    0.89150   1.00
O2       0.50320    0.43850    0.89150   1.00
O2       0.43850    0.43850    0.82680   1.00
O2       0.32680    0.39150    0.89150   1.00
O2       0.39150    0.32680    0.89150   1.00
O2       0.39150    0.39150    0.82680   1.00
C1       0.41500    0.41500    1.02020   1.00
C1       0.41500    0.52020    0.91500   1.00
C1       0.30980    0.41500    0.91500   1.00
C1       0.52020    0.41500    0.91500   1.00
C1       0.41500    0.30980    0.91500   1.00
C1       0.41500    0.41500    0.80980   1.00
O1       0.41500    0.91500    0.41500   1.00
Zn1      0.38220    0.94780    0.44780   1.00
Zn1      0.44780    0.88220    0.44780   1.00
Zn1      0.44780    0.94780    0.38220   1.00
Zn1      0.38220    0.88220    0.38220   1.00
O2       0.39150    0.93850    0.50320   1.00
O2       0.39150    1.00320    0.43850   1.00
O2       0.32680    0.93850    0.43850   1.00
O2       0.43850    0.89150    0.50320   1.00
O2       0.50320    0.89150    0.43850   1.00
O2       0.43850    0.82680    0.43850   1.00
O2       0.43850    1.00320    0.39150   1.00
O2       0.50320    0.93850    0.39150   1.00
O2       0.43850    0.93850    0.32680   1.00
O2       0.32680    0.89150    0.39150   1.00
O2       0.39150    0.82680    0.39150   1.00
O2       0.39150    0.89150    0.32680   1.00
C1       0.41500    0.91500    0.52020   1.00
C1       0.41500    1.02020    0.41500   1.00
C1       0.30980    0.91500    0.41500   1.00
C1       0.52020    0.91500    0.41500   1.00
C1       0.41500    0.80980    0.41500   1.00
C1       0.41500    0.91500    0.30980   1.00
O1       0.91500    0.41500    0.41500   1.00
Zn1      0.88220    0.44780    0.44780   1.00
Zn1      0.94780    0.38220    0.44780   1.00
Zn1      0.94780    0.44780    0.38220   1.00
Zn1      0.88220    0.38220    0.38220   1.00
O2       0.89150    0.43850    0.50320   1.00
O2       0.89150    0.50320    0.43850   1.00
O2       0.82680    0.43850    0.43850   1.00
O2       0.93850    0.39150    0.50320   1.00
O2       1.00320    0.39150    0.43850   1.00
O2       0.93850    0.32680    0.43850   1.00
O2       0.93850    0.50320    0.39150   1.00
O2       1.00320    0.43850    0.39150   1.00
O2       0.93850    0.43850    0.32680   1.00
O2       0.82680    0.39150    0.39150   1.00
O2       0.89150    0.32680    0.39150   1.00
O2       0.89150    0.39150    0.32680   1.00
C1       0.91500    0.41500    0.52020   1.00
C1       0.91500    0.52020    0.41500   1.00
C1       0.80980    0.41500    0.41500   1.00
C1       1.02020    0.41500    0.41500   1.00
C1       0.91500    0.30980    0.41500   1.00
C1       0.91500    0.41500    0.30980   1.00
O1       0.41500    0.41500    0.41500   1.00
Zn1      0.44780    0.38220    0.38220   1.00
Zn1      0.38220    0.44780    0.38220   1.00
Zn1      0.38220    0.38220    0.44780   1.00
Zn1      0.44780    0.44780    0.44780   1.00
O2       0.43850    0.39150    0.32680   1.00
O2       0.43850    0.32680    0.39150   1.00
O2       0.50320    0.39150    0.39150   1.00
O2       0.39150    0.43850    0.32680   1.00
O2       0.32680    0.43850    0.39150   1.00
O2       0.39150    0.50320    0.39150   1.00
O2       0.39150    0.32680    0.43850   1.00
O2       0.32680    0.39150    0.43850   1.00
O2       0.39150    0.39150    0.50320   1.00
O2       0.50320    0.43850    0.43850   1.00
O2       0.43850    0.50320    0.43850   1.00
O2       0.43850    0.43850    0.50320   1.00
C1       0.41500    0.41500    0.30980   1.00
C1       0.41500    0.30980    0.41500   1.00
C1       0.52020    0.41500    0.41500   1.00
C1       0.30980    0.41500    0.41500   1.00
C1       0.41500    0.52020    0.41500   1.00
C1       0.41500    0.41500    0.52020   1.00
O1       0.91500    0.91500    0.41500   1.00
Zn1      0.94780    0.88220    0.38220   1.00
Zn1      0.88220    0.94780    0.38220   1.00
Zn1      0.88220    0.88220    0.44780   1.00
Zn1      0.94780    0.94780    0.44780   1.00
O2       0.93850    0.89150    0.32680   1.00
O2       0.93850    0.82680    0.39150   1.00
O2       1.00320    0.89150    0.39150   1.00
O2       0.89150    0.93850    0.32680   1.00
O2       0.82680    0.93850    0.39150   1.00
O2       0.89150    1.00320    0.39150   1.00
O2       0.89150    0.82680    0.43850   1.00
O2       0.82680    0.89150    0.43850   1.00
O2       0.89150    0.89150    0.50320   1.00
O2       1.00320    0.93850    0.43850   1.00
O2       0.93850    1.00320    0.43850   1.00
O2       0.93850    0.93850    0.50320   1.00
C1       0.91500    0.91500    0.30980   1.00
C1       0.91500    0.80980    0.41500   1.00
C1       1.02020    0.91500    0.41500   1.00
C1       0.80980    0.91500    0.41500   1.00
C1       0.91500    1.02020    0.41500   1.00
C1       0.91500    0.91500    0.52020   1.00
O1       0.91500    0.41500    0.91500   1.00
Zn1      0.94780    0.38220    0.88220   1.00
Zn1      0.88220    0.44780    0.88220   1.00
Zn1      0.88220    0.38220    0.94780   1.00
Zn1      0.94780    0.44780    0.94780   1.00
O2       0.93850    0.39150    0.82680   1.00
O2       0.93850    0.32680    0.89150   1.00
O2       1.00320    0.39150    0.89150   1.00
O2       0.89150    0.43850    0.82680   1.00
O2       0.82680    0.43850    0.89150   1.00
O2       0.89150    0.50320    0.89150   1.00
O2       0.89150    0.32680    0.93850   1.00
O2       0.82680    0.39150    0.93850   1.00
O2       0.89150    0.39150    1.00320   1.00
O2       1.00320    0.43850    0.93850   1.00
O2       0.93850    0.50320    0.93850   1.00
O2       0.93850    0.43850    1.00320   1.00
C1       0.91500    0.41500    0.80980   1.00
C1       0.91500    0.30980    0.91500   1.00
C1       1.02020    0.41500    0.91500   1.00
C1       0.80980    0.41500    0.91500   1.00
C1       0.91500    0.52020    0.91500   1.00
C1       0.91500    0.41500    1.02020   1.00
O1       0.41500    0.91500    0.91500   1.00
Zn1      0.44780    0.88220    0.88220   1.00
Zn1      0.38220    0.94780    0.88220   1.00
Zn1      0.38220    0.88220    0.94780   1.00
Zn1      0.44780    0.94780    0.94780   1.00
O2       0.43850    0.89150    0.82680   1.00
O2       0.43850    0.82680    0.89150   1.00
O2       0.50320    0.89150    0.89150   1.00
O2       0.39150    0.93850    0.82680   1.00
O2       0.32680    0.93850    0.89150   1.00
O2       0.39150    1.00320    0.89150   1.00
O2       0.39150    0.82680    0.93850   1.00
O2       0.32680    0.89150    0.93850   1.00
O2       0.39150    0.89150    1.00320   1.00
O2       0.50320    0.93850    0.93850   1.00
O2       0.43850    1.00320    0.93850   1.00
O2       0.43850    0.93850    1.00320   1.00
C1       0.41500    0.91500    0.80980   1.00
C1       0.41500    0.80980    0.91500   1.00
C1       0.52020    0.91500    0.91500   1.00
C1       0.30980    0.91500    0.91500   1.00
C1       0.41500    1.02020    0.91500   1.00
C1       0.41500    0.91500    1.02020   1.00
C4       0.75022    0.74969    0.97915   1.00
C4       0.74978    0.75031    1.02085   1.00
C3       0.73105    0.72018    0.95751   1.00
C3       0.71604    0.74050    1.04252   1.00
C3       0.76925    0.77919    0.95738   1.00
C3       0.78353    0.75999    1.04259   1.00
C2       0.74987    0.74991    0.89482   1.00
C2       0.74987    0.74991    1.10518   1.00
C3a      0.73080    0.72015    0.91599   1.00
C3       0.71616    0.74034    1.08382   1.00
C3       0.76903    0.77924    0.91611   1.00
C3a      0.78377    0.75987    1.08403   1.00
H1       0.71643    0.69683    0.97294   1.00
H1       0.68922    0.73322    1.02750   1.00
C5       0.71023    0.68813    0.89410   1.00
H1       0.68972    0.73269    1.09933   1.00
H1       0.78368    0.80251    0.90056   1.00
C5       0.82067    0.77050    1.10535   1.00
H1       0.81044    0.76665    1.02747   1.00
H1       0.78379    0.80293    0.97230   1.00
H2       0.82815    0.80128    1.09837   1.00
H2       0.81652    0.76872    1.13747   1.00
N1       0.85258    0.74454    1.09395   1.00
C6       0.86833    0.74137    1.05810   1.00
C6       0.87182    0.71972    1.11757   1.00
C6       0.89788    0.71406    1.05873   1.00
C6       0.90010    0.70029    1.09656   1.00
H3       0.85903    0.75788    1.03281   1.00
H3       0.86564    0.71581    1.14831   1.00
H3       0.91586    0.70520    1.03436   1.00
H3       0.92010    0.67854    1.10758   1.00
H2       0.71295    0.69375    0.86228   1.00
H2       0.72383    0.65931    0.90001   1.00
N1       0.66915    0.68663    0.90523   1.00
C6       0.63622    0.69232    0.88078   1.00
C6       0.65362    0.67889    0.94285   1.00
C6       0.60271    0.68825    0.90277   1.00
C6       0.61340    0.68002    0.94091   1.00
H3       0.63747    0.69889    0.84992   1.00
H3       0.67085    0.67343    0.96876   1.00
H3       0.57318    0.69109    0.89205   1.00
H3       0.59364    0.67538    0.96505   1.00
C4       0.74969    0.97915    0.75022   1.00
C4       0.75031    1.02085    0.74978   1.00
C3       0.72018    0.95751    0.73105   1.00
C3       0.74050    1.04252    0.71604   1.00
C3       0.77919    0.95738    0.76925   1.00
C3       0.75999    1.04259    0.78353   1.00
C2       0.74991    0.89482    0.74987   1.00
C2       0.74991    1.10518    0.74987   1.00
C3a      0.72015    0.91599    0.73080   1.00
C3       0.74034    1.08382    0.71616   1.00
C3       0.77924    0.91611    0.76903   1.00
C3a      0.75987    1.08403    0.78377   1.00
H1       0.69683    0.97294    0.71643   1.00
H1       0.73322    1.02750    0.68922   1.00
C5       0.68813    0.89410    0.71023   1.00
H1       0.73269    1.09933    0.68972   1.00
H1       0.80251    0.90056    0.78368   1.00
C5       0.77050    1.10535    0.82067   1.00
H1       0.76665    1.02747    0.81044   1.00
H1       0.80293    0.97230    0.78379   1.00
H2       0.80128    1.09837    0.82815   1.00
H2       0.76872    1.13747    0.81652   1.00
N1       0.74454    1.09395    0.85258   1.00
C6       0.74137    1.05810    0.86833   1.00
C6       0.71972    1.11757    0.87182   1.00
C6       0.71406    1.05873    0.89788   1.00
C6       0.70029    1.09656    0.90010   1.00
H3       0.75788    1.03281    0.85903   1.00
H3       0.71581    1.14831    0.86564   1.00
H3       0.70520    1.03436    0.91586   1.00
H3       0.67854    1.10758    0.92010   1.00
H2       0.69375    0.86228    0.71295   1.00
H2       0.65931    0.90001    0.72383   1.00
N1       0.68663    0.90523    0.66915   1.00
C6       0.69232    0.88078    0.63622   1.00
C6       0.67889    0.94285    0.65362   1.00
C6       0.68825    0.90277    0.60271   1.00
C6       0.68002    0.94091    0.61340   1.00
H3       0.69889    0.84992    0.63747   1.00
H3       0.67343    0.96876    0.67085   1.00
H3       0.69109    0.89205    0.57318   1.00
H3       0.67538    0.96505    0.59364   1.00
C4       0.52085    0.75022    0.75031   1.00
C4       0.47915    0.74978    0.74969   1.00
C3       0.54249    0.73105    0.77982   1.00
C3       0.45748    0.71604    0.75950   1.00
C3       0.54262    0.76925    0.72081   1.00
C3       0.45741    0.78353    0.74001   1.00
C2       0.60518    0.74987    0.75009   1.00
C2       0.39482    0.74987    0.75009   1.00
C3a      0.58401    0.73080    0.77985   1.00
C3       0.41618    0.71616    0.75966   1.00
C3       0.58389    0.76903    0.72076   1.00
C3a      0.41597    0.78377    0.74013   1.00
H1       0.52706    0.71643    0.80317   1.00
H1       0.47250    0.68922    0.76678   1.00
C5       0.60590    0.71023    0.81187   1.00
H1       0.40067    0.68972    0.76731   1.00
H1       0.59944    0.78368    0.69749   1.00
C5       0.39465    0.82067    0.72950   1.00
H1       0.47253    0.81044    0.73335   1.00
H1       0.52770    0.78379    0.69707   1.00
H2       0.40163    0.82815    0.69872   1.00
H2       0.36253    0.81652    0.73128   1.00
N1       0.40605    0.85258    0.75546   1.00
C6       0.44190    0.86833    0.75863   1.00
C6       0.38243    0.87182    0.78028   1.00
C6       0.44127    0.89788    0.78594   1.00
C6       0.40344    0.90010    0.79971   1.00
H3       0.46719    0.85903    0.74212   1.00
H3       0.35169    0.86564    0.78419   1.00
H3       0.46564    0.91586    0.79480   1.00
H3       0.39242    0.92010    0.82146   1.00
H2       0.63772    0.71295    0.80625   1.00
H2       0.59999    0.72383    0.84069   1.00
N1       0.59477    0.66915    0.81337   1.00
C6       0.61922    0.63622    0.80768   1.00
C6       0.55715    0.65362    0.82111   1.00
C6       0.59723    0.60271    0.81175   1.00
C6       0.55909    0.61340    0.81998   1.00
H3       0.65008    0.63747    0.80111   1.00
H3       0.53124    0.67085    0.82657   1.00
H3       0.60795    0.57318    0.80891   1.00
H3       0.53495    0.59364    0.82462   1.00
C4       0.97915    0.75022    0.74969   1.00
C4       1.02085    0.74978    0.75031   1.00
C3       0.95751    0.73105    0.72018   1.00
C3       1.04252    0.71604    0.74050   1.00
C3       0.95738    0.76925    0.77919   1.00
C3       1.04259    0.78353    0.75999   1.00
C2       0.89482    0.74987    0.74991   1.00
C2       1.10518    0.74987    0.74991   1.00
C3a      0.91599    0.73080    0.72015   1.00
C3       1.08382    0.71616    0.74034   1.00
C3       0.91611    0.76903    0.77924   1.00
C3a      1.08403    0.78377    0.75987   1.00
H1       0.97294    0.71643    0.69683   1.00
H1       1.02750    0.68922    0.73322   1.00
C5       0.89410    0.71023    0.68813   1.00
H1       1.09933    0.68972    0.73269   1.00
H1       0.90056    0.78368    0.80251   1.00
C5       1.10535    0.82067    0.77050   1.00
H1       1.02747    0.81044    0.76665   1.00
H1       0.97230    0.78379    0.80293   1.00
H2       1.09837    0.82815    0.80128   1.00
H2       1.13747    0.81652    0.76872   1.00
N1       1.09395    0.85258    0.74454   1.00
C6       1.05810    0.86833    0.74137   1.00
C6       1.11757    0.87182    0.71972   1.00
C6       1.05873    0.89788    0.71406   1.00
C6       1.09656    0.90010    0.70029   1.00
H3       1.03281    0.85903    0.75788   1.00
H3       1.14831    0.86564    0.71581   1.00
H3       1.03436    0.91586    0.70520   1.00
H3       1.10758    0.92010    0.67854   1.00
H2       0.86228    0.71295    0.69375   1.00
H2       0.90001    0.72383    0.65931   1.00
N1       0.90523    0.66915    0.68663   1.00
C6       0.88078    0.63622    0.69232   1.00
C6       0.94285    0.65362    0.67889   1.00
C6       0.90277    0.60271    0.68825   1.00
C6       0.94091    0.61340    0.68002   1.00
H3       0.84992    0.63747    0.69889   1.00
H3       0.96876    0.67085    0.67343   1.00
H3       0.89205    0.57318    0.69109   1.00
H3       0.96505    0.59364    0.67538   1.00
C4       0.75031    0.52085    0.75022   1.00
C4       0.74969    0.47915    0.74978   1.00
C3       0.77982    0.54249    0.73105   1.00
C3       0.75950    0.45748    0.71604   1.00
C3       0.72081    0.54262    0.76925   1.00
C3       0.74001    0.45741    0.78353   1.00
C2       0.75009    0.60518    0.74987   1.00
C2       0.75009    0.39482    0.74987   1.00
C3a      0.77985    0.58401    0.73080   1.00
C3       0.75966    0.41618    0.71616   1.00
C3       0.72076    0.58389    0.76903   1.00
C3a      0.74013    0.41597    0.78377   1.00
H1       0.80317    0.52706    0.71643   1.00
H1       0.76678    0.47250    0.68922   1.00
C5       0.81187    0.60590    0.71023   1.00
H1       0.76731    0.40067    0.68972   1.00
H1       0.69749    0.59944    0.78368   1.00
C5       0.72950    0.39465    0.82067   1.00
H1       0.73335    0.47253    0.81044   1.00
H1       0.69707    0.52770    0.78379   1.00
H2       0.69872    0.40163    0.82815   1.00
H2       0.73128    0.36253    0.81652   1.00
N1       0.75546    0.40605    0.85258   1.00
C6       0.75863    0.44190    0.86833   1.00
C6       0.78028    0.38243    0.87182   1.00
C6       0.78594    0.44127    0.89788   1.00
C6       0.79971    0.40344    0.90010   1.00
H3       0.74212    0.46719    0.85903   1.00
H3       0.78419    0.35169    0.86564   1.00
H3       0.79480    0.46564    0.91586   1.00
H3       0.82146    0.39242    0.92010   1.00
H2       0.80625    0.63772    0.71295   1.00
H2       0.84069    0.59999    0.72383   1.00
N1       0.81337    0.59477    0.66915   1.00
C6       0.80768    0.61922    0.63622   1.00
C6       0.82111    0.55715    0.65362   1.00
C6       0.81175    0.59723    0.60271   1.00
C6       0.81998    0.55909    0.61340   1.00
H3       0.80111    0.65008    0.63747   1.00
H3       0.82657    0.53124    0.67085   1.00
H3       0.80891    0.60795    0.57318   1.00
H3       0.82462    0.53495    0.59364   1.00
C4       0.75022    0.75031    0.52085   1.00
C4       0.74978    0.74969    0.47915   1.00
C3       0.73105    0.77982    0.54249   1.00
C3       0.71604    0.75950    0.45748   1.00
C3       0.76925    0.72081    0.54262   1.00
C3       0.78353    0.74001    0.45741   1.00
C2       0.74987    0.75009    0.60518   1.00
C2       0.74987    0.75009    0.39482   1.00
C3a      0.73080    0.77985    0.58401   1.00
C3       0.71616    0.75966    0.41618   1.00
C3       0.76903    0.72076    0.58389   1.00
C3a      0.78377    0.74013    0.41597   1.00
H1       0.71643    0.80317    0.52706   1.00
H1       0.68922    0.76678    0.47250   1.00
C5       0.71023    0.81187    0.60590   1.00
H1       0.68972    0.76731    0.40067   1.00
H1       0.78368    0.69749    0.59944   1.00
C5       0.82067    0.72950    0.39465   1.00
H1       0.81044    0.73335    0.47253   1.00
H1       0.78379    0.69707    0.52770   1.00
H2       0.82815    0.69872    0.40163   1.00
H2       0.81652    0.73128    0.36253   1.00
N1       0.85258    0.75546    0.40605   1.00
C6       0.86833    0.75863    0.44190   1.00
C6       0.87182    0.78028    0.38243   1.00
C6       0.89788    0.78594    0.44127   1.00
C6       0.90010    0.79971    0.40344   1.00
H3       0.85903    0.74212    0.46719   1.00
H3       0.86564    0.78419    0.35169   1.00
H3       0.91586    0.79480    0.46564   1.00
H3       0.92010    0.82146    0.39242   1.00
H2       0.71295    0.80625    0.63772   1.00
H2       0.72383    0.84069    0.59999   1.00
N1       0.66915    0.81337    0.59477   1.00
C6       0.63622    0.80768    0.61922   1.00
C6       0.65362    0.82111    0.55715   1.00
C6       0.60271    0.81175    0.59723   1.00
C6       0.61340    0.81998    0.55909   1.00
H3       0.63747    0.80111    0.65008   1.00
H3       0.67085    0.82657    0.53124   1.00
H3       0.57318    0.80891    0.60795   1.00
H3       0.59364    0.82462    0.53495   1.00
C4       0.25022    0.24969    0.97915   1.00
C4       0.24978    0.25031    1.02085   1.00
C3       0.23105    0.22018    0.95751   1.00
C3       0.21604    0.24050    1.04252   1.00
C3       0.26925    0.27919    0.95738   1.00
C3       0.28353    0.25999    1.04259   1.00
C2       0.24987    0.24991    0.89482   1.00
C2       0.24987    0.24991    1.10518   1.00
C3a      0.23080    0.22015    0.91599   1.00
C3       0.21616    0.24034    1.08382   1.00
C3       0.26903    0.27924    0.91611   1.00
C3a      0.28377    0.25987    1.08403   1.00
H1       0.21643    0.19683    0.97294   1.00
H1       0.18922    0.23322    1.02750   1.00
C5       0.21023    0.18813    0.89410   1.00
H1       0.18972    0.23269    1.09933   1.00
H1       0.28368    0.30251    0.90056   1.00
C5       0.32067    0.27050    1.10535   1.00
H1       0.31044    0.26665    1.02747   1.00
H1       0.28379    0.30293    0.97230   1.00
H2       0.32815    0.30128    1.09837   1.00
H2       0.31652    0.26872    1.13747   1.00
N1       0.35258    0.24454    1.09395   1.00
C6       0.36833    0.24137    1.05810   1.00
C6       0.37182    0.21972    1.11757   1.00
C6       0.39788    0.21406    1.05873   1.00
C6       0.40010    0.20029    1.09656   1.00
H3       0.35903    0.25788    1.03281   1.00
H3       0.36564    0.21581    1.14831   1.00
H3       0.41586    0.20520    1.03436   1.00
H3       0.42010    0.17854    1.10758   1.00
H2       0.21295    0.19375    0.86228   1.00
H2       0.22383    0.15931    0.90001   1.00
N1       0.16915    0.18663    0.90523   1.00
C6       0.13622    0.19232    0.88078   1.00
C6       0.15362    0.17889    0.94285   1.00
C6       0.10271    0.18825    0.90277   1.00
C6       0.11340    0.18002    0.94091   1.00
H3       0.13747    0.19889    0.84992   1.00
H3       0.17085    0.17343    0.96876   1.00
H3       0.07318    0.19109    0.89205   1.00
H3       0.09364    0.17538    0.96505   1.00
C4       0.24969    0.47915    0.75022   1.00
C4       0.25031    0.52085    0.74978   1.00
C3       0.22018    0.45751    0.73105   1.00
C3       0.24050    0.54252    0.71604   1.00
C3       0.27919    0.45738    0.76925   1.00
C3       0.25999    0.54259    0.78353   1.00
C2       0.24991    0.39482    0.74987   1.00
C2       0.24991    0.60518    0.74987   1.00
C3a      0.22015    0.41599    0.73080   1.00
C3       0.24034    0.58382    0.71616   1.00
C3       0.27924    0.41611    0.76903   1.00
C3a      0.25987    0.58403    0.78377   1.00
H1       0.19683    0.47294    0.71643   1.00
H1       0.23322    0.52750    0.68922   1.00
C5       0.18813    0.39410    0.71023   1.00
H1       0.23269    0.59933    0.68972   1.00
H1       0.30251    0.40056    0.78368   1.00
C5       0.27050    0.60535    0.82067   1.00
H1       0.26665    0.52747    0.81044   1.00
H1       0.30293    0.47230    0.78379   1.00
H2       0.30128    0.59837    0.82815   1.00
H2       0.26872    0.63747    0.81652   1.00
N1       0.24454    0.59395    0.85258   1.00
C6       0.24137    0.55810    0.86833   1.00
C6       0.21972    0.61757    0.87182   1.00
C6       0.21406    0.55873    0.89788   1.00
C6       0.20029    0.59656    0.90010   1.00
H3       0.25788    0.53281    0.85903   1.00
H3       0.21581    0.64831    0.86564   1.00
H3       0.20520    0.53436    0.91586   1.00
H3       0.17854    0.60758    0.92010   1.00
H2       0.19375    0.36228    0.71295   1.00
H2       0.15931    0.40001    0.72383   1.00
N1       0.18663    0.40523    0.66915   1.00
C6       0.19232    0.38078    0.63622   1.00
C6       0.17889    0.44285    0.65362   1.00
C6       0.18825    0.40277    0.60271   1.00
C6       0.18002    0.44091    0.61340   1.00
H3       0.19889    0.34992    0.63747   1.00
H3       0.17343    0.46876    0.67085   1.00
H3       0.19109    0.39205    0.57318   1.00
H3       0.17538    0.46505    0.59364   1.00
C4       0.02085    0.25022    0.75031   1.00
C4       -0.02085   0.24978    0.74969   1.00
C3       0.04249    0.23105    0.77982   1.00
C3       -0.04252   0.21604    0.75950   1.00
C3       0.04262    0.26925    0.72081   1.00
C3       -0.04259   0.28353    0.74001   1.00
C2       0.10518    0.24987    0.75009   1.00
C2       -0.10518   0.24987    0.75009   1.00
C3a      0.08401    0.23080    0.77985   1.00
C3       -0.08382   0.21616    0.75966   1.00
C3       0.08389    0.26903    0.72076   1.00
C3a      -0.08403   0.28377    0.74013   1.00
H1       0.02706    0.21643    0.80317   1.00
H1       -0.02750   0.18922    0.76678   1.00
C5       0.10590    0.21023    0.81187   1.00
H1       -0.09933   0.18972    0.76731   1.00
H1       0.09944    0.28368    0.69749   1.00
C5       -0.10535   0.32067    0.72950   1.00
H1       -0.02747   0.31044    0.73335   1.00
H1       0.02770    0.28379    0.69707   1.00
H2       -0.09837   0.32815    0.69872   1.00
H2       -0.13747   0.31652    0.73128   1.00
N1       -0.09395   0.35258    0.75546   1.00
C6       -0.05810   0.36833    0.75863   1.00
C6       -0.11757   0.37182    0.78028   1.00
C6       -0.05873   0.39788    0.78594   1.00
C6       -0.09656   0.40010    0.79971   1.00
H3       -0.03281   0.35903    0.74212   1.00
H3       -0.14831   0.36564    0.78419   1.00
H3       -0.03436   0.41586    0.79480   1.00
H3       -0.10758   0.42010    0.82146   1.00
H2       0.13772    0.21295    0.80625   1.00
H2       0.09999    0.22383    0.84069   1.00
N1       0.09477    0.16915    0.81337   1.00
C6       0.11922    0.13622    0.80768   1.00
C6       0.05715    0.15362    0.82111   1.00
C6       0.09723    0.10271    0.81175   1.00
C6       0.05909    0.11340    0.81998   1.00
H3       0.15008    0.13747    0.80111   1.00
H3       0.03124    0.17085    0.82657   1.00
H3       0.10795    0.07318    0.80891   1.00
H3       0.03495    0.09364    0.82462   1.00
C4       0.47915    0.25022    0.74969   1.00
C4       0.52085    0.24978    0.75031   1.00
C3       0.45751    0.23105    0.72018   1.00
C3       0.54252    0.21604    0.74050   1.00
C3       0.45738    0.26925    0.77919   1.00
C3       0.54259    0.28353    0.75999   1.00
C2       0.39482    0.24987    0.74991   1.00
C2       0.60518    0.24987    0.74991   1.00
C3a      0.41599    0.23080    0.72015   1.00
C3       0.58382    0.21616    0.74034   1.00
C3       0.41611    0.26903    0.77924   1.00
C3a      0.58403    0.28377    0.75987   1.00
H1       0.47294    0.21643    0.69683   1.00
H1       0.52750    0.18922    0.73322   1.00
C5       0.39410    0.21023    0.68813   1.00
H1       0.59933    0.18972    0.73269   1.00
H1       0.40056    0.28368    0.80251   1.00
C5       0.60535    0.32067    0.77050   1.00
H1       0.52747    0.31044    0.76665   1.00
H1       0.47230    0.28379    0.80293   1.00
H2       0.59837    0.32815    0.80128   1.00
H2       0.63747    0.31652    0.76872   1.00
N1       0.59395    0.35258    0.74454   1.00
C6       0.55810    0.36833    0.74137   1.00
C6       0.61757    0.37182    0.71972   1.00
C6       0.55873    0.39788    0.71406   1.00
C6       0.59656    0.40010    0.70029   1.00
H3       0.53281    0.35903    0.75788   1.00
H3       0.64831    0.36564    0.71581   1.00
H3       0.53436    0.41586    0.70520   1.00
H3       0.60758    0.42010    0.67854   1.00
H2       0.36228    0.21295    0.69375   1.00
H2       0.40001    0.22383    0.65931   1.00
N1       0.40523    0.16915    0.68663   1.00
C6       0.38078    0.13622    0.69232   1.00
C6       0.44285    0.15362    0.67889   1.00
C6       0.40277    0.10271    0.68825   1.00
C6       0.44091    0.11340    0.68002   1.00
H3       0.34992    0.13747    0.69889   1.00
H3       0.46876    0.17085    0.67343   1.00
H3       0.39205    0.07318    0.69109   1.00
H3       0.46505    0.09364    0.67538   1.00
C4       0.25031    0.02085    0.75022   1.00
C4       0.24969    -0.02085   0.74978   1.00
C3       0.27982    0.04249    0.73105   1.00
C3       0.25950    -0.04252   0.71604   1.00
C3       0.22081    0.04262    0.76925   1.00
C3       0.24001    -0.04259   0.78353   1.00
C2       0.25009    0.10518    0.74987   1.00
C2       0.25009    -0.10518   0.74987   1.00
C3a      0.27985    0.08401    0.73080   1.00
C3       0.25966    -0.08382   0.71616   1.00
C3       0.22076    0.08389    0.76903   1.00
C3a      0.24013    -0.08403   0.78377   1.00
H1       0.30317    0.02706    0.71643   1.00
H1       0.26678    -0.02750   0.68922   1.00
C5       0.31187    0.10590    0.71023   1.00
H1       0.26731    -0.09933   0.68972   1.00
H1       0.19749    0.09944    0.78368   1.00
C5       0.22950    -0.10535   0.82067   1.00
H1       0.23335    -0.02747   0.81044   1.00
H1       0.19707    0.02770    0.78379   1.00
H2       0.19872    -0.09837   0.82815   1.00
H2       0.23128    -0.13747   0.81652   1.00
N1       0.25546    -0.09395   0.85258   1.00
C6       0.25863    -0.05810   0.86833   1.00
C6       0.28028    -0.11757   0.87182   1.00
C6       0.28594    -0.05873   0.89788   1.00
C6       0.29971    -0.09656   0.90010   1.00
H3       0.24212    -0.03281   0.85903   1.00
H3       0.28419    -0.14831   0.86564   1.00
H3       0.29480    -0.03436   0.91586   1.00
H3       0.32146    -0.10758   0.92010   1.00
H2       0.30625    0.13772    0.71295   1.00
H2       0.34069    0.09999    0.72383   1.00
N1       0.31337    0.09477    0.66915   1.00
C6       0.30768    0.11922    0.63622   1.00
C6       0.32111    0.05715    0.65362   1.00
C6       0.31175    0.09723    0.60271   1.00
C6       0.31998    0.05909    0.61340   1.00
H3       0.30111    0.15008    0.63747   1.00
H3       0.32657    0.03124    0.67085   1.00
H3       0.30891    0.10795    0.57318   1.00
H3       0.32462    0.03495    0.59364   1.00
C4       0.25022    0.25031    0.52085   1.00
C4       0.24978    0.24969    0.47915   1.00
C3       0.23105    0.27982    0.54249   1.00
C3       0.21604    0.25950    0.45748   1.00
C3       0.26925    0.22081    0.54262   1.00
C3       0.28353    0.24001    0.45741   1.00
C2       0.24987    0.25009    0.60518   1.00
C2       0.24987    0.25009    0.39482   1.00
C3a      0.23080    0.27985    0.58401   1.00
C3       0.21616    0.25966    0.41618   1.00
C3       0.26903    0.22076    0.58389   1.00
C3a      0.28377    0.24013    0.41597   1.00
H1       0.21643    0.30317    0.52706   1.00
H1       0.18922    0.26678    0.47250   1.00
C5       0.21023    0.31187    0.60590   1.00
H1       0.18972    0.26731    0.40067   1.00
H1       0.28368    0.19749    0.59944   1.00
C5       0.32067    0.22950    0.39465   1.00
H1       0.31044    0.23335    0.47253   1.00
H1       0.28379    0.19707    0.52770   1.00
H2       0.32815    0.19872    0.40163   1.00
H2       0.31652    0.23128    0.36253   1.00
N1       0.35258    0.25546    0.40605   1.00
C6       0.36833    0.25863    0.44190   1.00
C6       0.37182    0.28028    0.38243   1.00
C6       0.39788    0.28594    0.44127   1.00
C6       0.40010    0.29971    0.40344   1.00
H3       0.35903    0.24212    0.46719   1.00
H3       0.36564    0.28419    0.35169   1.00
H3       0.41586    0.29480    0.46564   1.00
H3       0.42010    0.32146    0.39242   1.00
H2       0.21295    0.30625    0.63772   1.00
H2       0.22383    0.34069    0.59999   1.00
N1       0.16915    0.31337    0.59477   1.00
C6       0.13622    0.30768    0.61922   1.00
C6       0.15362    0.32111    0.55715   1.00
C6       0.10271    0.31175    0.59723   1.00
C6       0.11340    0.31998    0.55909   1.00
H3       0.13747    0.30111    0.65008   1.00
H3       0.17085    0.32657    0.53124   1.00
H3       0.07318    0.30891    0.60795   1.00
H3       0.09364    0.32462    0.53495   1.00
C4       0.25022    0.74969    0.47915   1.00
C4       0.24978    0.75031    0.52085   1.00
C3       0.23105    0.72018    0.45751   1.00
C3       0.21604    0.74050    0.54252   1.00
C3       0.26925    0.77919    0.45738   1.00
C3       0.28353    0.75999    0.54259   1.00
C2       0.24987    0.74991    0.39482   1.00
C2       0.24987    0.74991    0.60518   1.00
C3a      0.23080    0.72015    0.41599   1.00
C3       0.21616    0.74034    0.58382   1.00
C3       0.26903    0.77924    0.41611   1.00
C3a      0.28377    0.75987    0.58403   1.00
H1       0.21643    0.69683    0.47294   1.00
H1       0.18922    0.73322    0.52750   1.00
C5       0.21023    0.68813    0.39410   1.00
H1       0.18972    0.73269    0.59933   1.00
H1       0.28368    0.80251    0.40056   1.00
C5       0.32067    0.77050    0.60535   1.00
H1       0.31044    0.76665    0.52747   1.00
H1       0.28379    0.80293    0.47230   1.00
H2       0.32815    0.80128    0.59837   1.00
H2       0.31652    0.76872    0.63747   1.00
N1       0.35258    0.74454    0.59395   1.00
C6       0.36833    0.74137    0.55810   1.00
C6       0.37182    0.71972    0.61757   1.00
C6       0.39788    0.71406    0.55873   1.00
C6       0.40010    0.70029    0.59656   1.00
H3       0.35903    0.75788    0.53281   1.00
H3       0.36564    0.71581    0.64831   1.00
H3       0.41586    0.70520    0.53436   1.00
H3       0.42010    0.67854    0.60758   1.00
H2       0.21295    0.69375    0.36228   1.00
H2       0.22383    0.65931    0.40001   1.00
N1       0.16915    0.68663    0.40523   1.00
C6       0.13622    0.69232    0.38078   1.00
C6       0.15362    0.67889    0.44285   1.00
C6       0.10271    0.68825    0.40277   1.00
C6       0.11340    0.68002    0.44091   1.00
H3       0.13747    0.69889    0.34992   1.00
H3       0.17085    0.67343    0.46876   1.00
H3       0.07318    0.69109    0.39205   1.00
H3       0.09364    0.67538    0.46505   1.00
C4       0.24969    0.97915    0.25022   1.00
C4       0.25031    1.02085    0.24978   1.00
C3       0.22018    0.95751    0.23105   1.00
C3       0.24050    1.04252    0.21604   1.00
C3       0.27919    0.95738    0.26925   1.00
C3       0.25999    1.04259    0.28353   1.00
C2       0.24991    0.89482    0.24987   1.00
C2       0.24991    1.10518    0.24987   1.00
C3a      0.22015    0.91599    0.23080   1.00
C3       0.24034    1.08382    0.21616   1.00
C3       0.27924    0.91611    0.26903   1.00
C3a      0.25987    1.08403    0.28377   1.00
H1       0.19683    0.97294    0.21643   1.00
H1       0.23322    1.02750    0.18922   1.00
C5       0.18813    0.89410    0.21023   1.00
H1       0.23269    1.09933    0.18972   1.00
H1       0.30251    0.90056    0.28368   1.00
C5       0.27050    1.10535    0.32067   1.00
H1       0.26665    1.02747    0.31044   1.00
H1       0.30293    0.97230    0.28379   1.00
H2       0.30128    1.09837    0.32815   1.00
H2       0.26872    1.13747    0.31652   1.00
N1       0.24454    1.09395    0.35258   1.00
C6       0.24137    1.05810    0.36833   1.00
C6       0.21972    1.11757    0.37182   1.00
C6       0.21406    1.05873    0.39788   1.00
C6       0.20029    1.09656    0.40010   1.00
H3       0.25788    1.03281    0.35903   1.00
H3       0.21581    1.14831    0.36564   1.00
H3       0.20520    1.03436    0.41586   1.00
H3       0.17854    1.10758    0.42010   1.00
H2       0.19375    0.86228    0.21295   1.00
H2       0.15931    0.90001    0.22383   1.00
N1       0.18663    0.90523    0.16915   1.00
C6       0.19232    0.88078    0.13622   1.00
C6       0.17889    0.94285    0.15362   1.00
C6       0.18825    0.90277    0.10271   1.00
C6       0.18002    0.94091    0.11340   1.00
H3       0.19889    0.84992    0.13747   1.00
H3       0.17343    0.96876    0.17085   1.00
H3       0.19109    0.89205    0.07318   1.00
H3       0.17538    0.96505    0.09364   1.00
C4       0.02085    0.75022    0.25031   1.00
C4       -0.02085   0.74978    0.24969   1.00
C3       0.04249    0.73105    0.27982   1.00
C3       -0.04252   0.71604    0.25950   1.00
C3       0.04262    0.76925    0.22081   1.00
C3       -0.04259   0.78353    0.24001   1.00
C2       0.10518    0.74987    0.25009   1.00
C2       -0.10518   0.74987    0.25009   1.00
C3a      0.08401    0.73080    0.27985   1.00
C3       -0.08382   0.71616    0.25966   1.00
C3       0.08389    0.76903    0.22076   1.00
C3a      -0.08403   0.78377    0.24013   1.00
H1       0.02706    0.71643    0.30317   1.00
H1       -0.02750   0.68922    0.26678   1.00
C5       0.10590    0.71023    0.31187   1.00
H1       -0.09933   0.68972    0.26731   1.00
H1       0.09944    0.78368    0.19749   1.00
C5       -0.10535   0.82067    0.22950   1.00
H1       -0.02747   0.81044    0.23335   1.00
H1       0.02770    0.78379    0.19707   1.00
H2       -0.09837   0.82815    0.19872   1.00
H2       -0.13747   0.81652    0.23128   1.00
N1       -0.09395   0.85258    0.25546   1.00
C6       -0.05810   0.86833    0.25863   1.00
C6       -0.11757   0.87182    0.28028   1.00
C6       -0.05873   0.89788    0.28594   1.00
C6       -0.09656   0.90010    0.29971   1.00
H3       -0.03281   0.85903    0.24212   1.00
H3       -0.14831   0.86564    0.28419   1.00
H3       -0.03436   0.91586    0.29480   1.00
H3       -0.10758   0.92010    0.32146   1.00
H2       0.13772    0.71295    0.30625   1.00
H2       0.09999    0.72383    0.34069   1.00
N1       0.09477    0.66915    0.31337   1.00
C6       0.11922    0.63622    0.30768   1.00
C6       0.05715    0.65362    0.32111   1.00
C6       0.09723    0.60271    0.31175   1.00
C6       0.05909    0.61340    0.31998   1.00
H3       0.15008    0.63747    0.30111   1.00
H3       0.03124    0.67085    0.32657   1.00
H3       0.10795    0.57318    0.30891   1.00
H3       0.03495    0.59364    0.32462   1.00
C4       0.47915    0.75022    0.24969   1.00
C4       0.52085    0.74978    0.25031   1.00
C3       0.45751    0.73105    0.22018   1.00
C3       0.54252    0.71604    0.24050   1.00
C3       0.45738    0.76925    0.27919   1.00
C3       0.54259    0.78353    0.25999   1.00
C2       0.39482    0.74987    0.24991   1.00
C2       0.60518    0.74987    0.24991   1.00
C3a      0.41599    0.73080    0.22015   1.00
C3       0.58382    0.71616    0.24034   1.00
C3       0.41611    0.76903    0.27924   1.00
C3a      0.58403    0.78377    0.25987   1.00
H1       0.47294    0.71643    0.19683   1.00
H1       0.52750    0.68922    0.23322   1.00
C5       0.39410    0.71023    0.18813   1.00
H1       0.59933    0.68972    0.23269   1.00
H1       0.40056    0.78368    0.30251   1.00
C5       0.60535    0.82067    0.27050   1.00
H1       0.52747    0.81044    0.26665   1.00
H1       0.47230    0.78379    0.30293   1.00
H2       0.59837    0.82815    0.30128   1.00
H2       0.63747    0.81652    0.26872   1.00
N1       0.59395    0.85258    0.24454   1.00
C6       0.55810    0.86833    0.24137   1.00
C6       0.61757    0.87182    0.21972   1.00
C6       0.55873    0.89788    0.21406   1.00
C6       0.59656    0.90010    0.20029   1.00
H3       0.53281    0.85903    0.25788   1.00
H3       0.64831    0.86564    0.21581   1.00
H3       0.53436    0.91586    0.20520   1.00
H3       0.60758    0.92010    0.17854   1.00
H2       0.36228    0.71295    0.19375   1.00
H2       0.40001    0.72383    0.15931   1.00
N1       0.40523    0.66915    0.18663   1.00
C6       0.38078    0.63622    0.19232   1.00
C6       0.44285    0.65362    0.17889   1.00
C6       0.40277    0.60271    0.18825   1.00
C6       0.44091    0.61340    0.18002   1.00
H3       0.34992    0.63747    0.19889   1.00
H3       0.46876    0.67085    0.17343   1.00
H3       0.39205    0.57318    0.19109   1.00
H3       0.46505    0.59364    0.17538   1.00
C4       0.25031    0.52085    0.25022   1.00
C4       0.24969    0.47915    0.24978   1.00
C3       0.27982    0.54249    0.23105   1.00
C3       0.25950    0.45748    0.21604   1.00
C3       0.22081    0.54262    0.26925   1.00
C3       0.24001    0.45741    0.28353   1.00
C2       0.25009    0.60518    0.24987   1.00
C2       0.25009    0.39482    0.24987   1.00
C3a      0.27985    0.58401    0.23080   1.00
C3       0.25966    0.41618    0.21616   1.00
C3       0.22076    0.58389    0.26903   1.00
C3a      0.24013    0.41597    0.28377   1.00
H1       0.30317    0.52706    0.21643   1.00
H1       0.26678    0.47250    0.18922   1.00
C5       0.31187    0.60590    0.21023   1.00
H1       0.26731    0.40067    0.18972   1.00
H1       0.19749    0.59944    0.28368   1.00
C5       0.22950    0.39465    0.32067   1.00
H1       0.23335    0.47253    0.31044   1.00
H1       0.19707    0.52770    0.28379   1.00
H2       0.19872    0.40163    0.32815   1.00
H2       0.23128    0.36253    0.31652   1.00
N1       0.25546    0.40605    0.35258   1.00
C6       0.25863    0.44190    0.36833   1.00
C6       0.28028    0.38243    0.37182   1.00
C6       0.28594    0.44127    0.39788   1.00
C6       0.29971    0.40344    0.40010   1.00
H3       0.24212    0.46719    0.35903   1.00
H3       0.28419    0.35169    0.36564   1.00
H3       0.29480    0.46564    0.41586   1.00
H3       0.32146    0.39242    0.42010   1.00
H2       0.30625    0.63772    0.21295   1.00
H2       0.34069    0.59999    0.22383   1.00
N1       0.31337    0.59477    0.16915   1.00
C6       0.30768    0.61922    0.13622   1.00
C6       0.32111    0.55715    0.15362   1.00
C6       0.31175    0.59723    0.10271   1.00
C6       0.31998    0.55909    0.11340   1.00
H3       0.30111    0.65008    0.13747   1.00
H3       0.32657    0.53124    0.17085   1.00
H3       0.30891    0.60795    0.07318   1.00
H3       0.32462    0.53495    0.09364   1.00
C4       0.25022    0.75031    0.02085   1.00
C4       0.24978    0.74969    -0.02085   1.00
C3       0.23105    0.77982    0.04249   1.00
C3       0.21604    0.75950    -0.04252   1.00
C3       0.26925    0.72081    0.04262   1.00
C3       0.28353    0.74001    -0.04259   1.00
C2       0.24987    0.75009    0.10518   1.00
C2       0.24987    0.75009    -0.10518   1.00
C3a      0.23080    0.77985    0.08401   1.00
C3       0.21616    0.75966    -0.08382   1.00
C3       0.26903    0.72076    0.08389   1.00
C3a      0.28377    0.74013    -0.08403   1.00
H1       0.21643    0.80317    0.02706   1.00
H1       0.18922    0.76678    -0.02750   1.00
C5       0.21023    0.81187    0.10590   1.00
H1       0.18972    0.76731    -0.09933   1.00
H1       0.28368    0.69749    0.09944   1.00
C5       0.32067    0.72950    -0.10535   1.00
H1       0.31044    0.73335    -0.02747   1.00
H1       0.28379    0.69707    0.02770   1.00
H2       0.32815    0.69872    -0.09837   1.00
H2       0.31652    0.73128    -0.13747   1.00
N1       0.35258    0.75546    -0.09395   1.00
C6       0.36833    0.75863    -0.05810   1.00
C6       0.37182    0.78028    -0.11757   1.00
C6       0.39788    0.78594    -0.05873   1.00
C6       0.40010    0.79971    -0.09656   1.00
H3       0.35903    0.74212    -0.03281   1.00
H3       0.36564    0.78419    -0.14831   1.00
H3       0.41586    0.79480    -0.03436   1.00
H3       0.42010    0.82146    -0.10758   1.00
H2       0.21295    0.80625    0.13772   1.00
H2       0.22383    0.84069    0.09999   1.00
N1       0.16915    0.81337    0.09477   1.00
C6       0.13622    0.80768    0.11922   1.00
C6       0.15362    0.82111    0.05715   1.00
C6       0.10271    0.81175    0.09723   1.00
C6       0.11340    0.81998    0.05909   1.00
H3       0.13747    0.80111    0.15008   1.00
H3       0.17085    0.82657    0.03124   1.00
H3       0.07318    0.80891    0.10795   1.00
H3       0.09364    0.82462    0.03495   1.00
C4       0.75022    0.24969    0.47915   1.00
C4       0.74978    0.25031    0.52085   1.00
C3       0.73105    0.22018    0.45751   1.00
C3       0.71604    0.24050    0.54252   1.00
C3       0.76925    0.27919    0.45738   1.00
C3       0.78353    0.25999    0.54259   1.00
C2       0.74987    0.24991    0.39482   1.00
C2       0.74987    0.24991    0.60518   1.00
C3a      0.73080    0.22015    0.41599   1.00
C3       0.71616    0.24034    0.58382   1.00
C3       0.76903    0.27924    0.41611   1.00
C3a      0.78377    0.25987    0.58403   1.00
H1       0.71643    0.19683    0.47294   1.00
H1       0.68922    0.23322    0.52750   1.00
C5       0.71023    0.18813    0.39410   1.00
H1       0.68972    0.23269    0.59933   1.00
H1       0.78368    0.30251    0.40056   1.00
C5       0.82067    0.27050    0.60535   1.00
H1       0.81044    0.26665    0.52747   1.00
H1       0.78379    0.30293    0.47230   1.00
H2       0.82815    0.30128    0.59837   1.00
H2       0.81652    0.26872    0.63747   1.00
N1       0.85258    0.24454    0.59395   1.00
C6       0.86833    0.24137    0.55810   1.00
C6       0.87182    0.21972    0.61757   1.00
C6       0.89788    0.21406    0.55873   1.00
C6       0.90010    0.20029    0.59656   1.00
H3       0.85903    0.25788    0.53281   1.00
H3       0.86564    0.21581    0.64831   1.00
H3       0.91586    0.20520    0.53436   1.00
H3       0.92010    0.17854    0.60758   1.00
H2       0.71295    0.19375    0.36228   1.00
H2       0.72383    0.15931    0.40001   1.00
N1       0.66915    0.18663    0.40523   1.00
C6       0.63622    0.19232    0.38078   1.00
C6       0.65362    0.17889    0.44285   1.00
C6       0.60271    0.18825    0.40277   1.00
C6       0.61340    0.18002    0.44091   1.00
H3       0.63747    0.19889    0.34992   1.00
H3       0.67085    0.17343    0.46876   1.00
H3       0.57318    0.19109    0.39205   1.00
H3       0.59364    0.17538    0.46505   1.00
C4       0.74969    0.47915    0.25022   1.00
C4       0.75031    0.52085    0.24978   1.00
C3       0.72018    0.45751    0.23105   1.00
C3       0.74050    0.54252    0.21604   1.00
C3       0.77919    0.45738    0.26925   1.00
C3       0.75999    0.54259    0.28353   1.00
C2       0.74991    0.39482    0.24987   1.00
C2       0.74991    0.60518    0.24987   1.00
C3a      0.72015    0.41599    0.23080   1.00
C3       0.74034    0.58382    0.21616   1.00
C3       0.77924    0.41611    0.26903   1.00
C3a      0.75987    0.58403    0.28377   1.00
H1       0.69683    0.47294    0.21643   1.00
H1       0.73322    0.52750    0.18922   1.00
C5       0.68813    0.39410    0.21023   1.00
H1       0.73269    0.59933    0.18972   1.00
H1       0.80251    0.40056    0.28368   1.00
C5       0.77050    0.60535    0.32067   1.00
H1       0.76665    0.52747    0.31044   1.00
H1       0.80293    0.47230    0.28379   1.00
H2       0.80128    0.59837    0.32815   1.00
H2       0.76872    0.63747    0.31652   1.00
N1       0.74454    0.59395    0.35258   1.00
C6       0.74137    0.55810    0.36833   1.00
C6       0.71972    0.61757    0.37182   1.00
C6       0.71406    0.55873    0.39788   1.00
C6       0.70029    0.59656    0.40010   1.00
H3       0.75788    0.53281    0.35903   1.00
H3       0.71581    0.64831    0.36564   1.00
H3       0.70520    0.53436    0.41586   1.00
H3       0.67854    0.60758    0.42010   1.00
H2       0.69375    0.36228    0.21295   1.00
H2       0.65931    0.40001    0.22383   1.00
N1       0.68663    0.40523    0.16915   1.00
C6       0.69232    0.38078    0.13622   1.00
C6       0.67889    0.44285    0.15362   1.00
C6       0.68825    0.40277    0.10271   1.00
C6       0.68002    0.44091    0.11340   1.00
H3       0.69889    0.34992    0.13747   1.00
H3       0.67343    0.46876    0.17085   1.00
H3       0.69109    0.39205    0.07318   1.00
H3       0.67538    0.46505    0.09364   1.00
C4       0.52085    0.25022    0.25031   1.00
C4       0.47915    0.24978    0.24969   1.00
C3       0.54249    0.23105    0.27982   1.00
C3       0.45748    0.21604    0.25950   1.00
C3       0.54262    0.26925    0.22081   1.00
C3       0.45741    0.28353    0.24001   1.00
C2       0.60518    0.24987    0.25009   1.00
C2       0.39482    0.24987    0.25009   1.00
C3a      0.58401    0.23080    0.27985   1.00
C3       0.41618    0.21616    0.25966   1.00
C3       0.58389    0.26903    0.22076   1.00
C3a      0.41597    0.28377    0.24013   1.00
H1       0.52706    0.21643    0.30317   1.00
H1       0.47250    0.18922    0.26678   1.00
C5       0.60590    0.21023    0.31187   1.00
H1       0.40067    0.18972    0.26731   1.00
H1       0.59944    0.28368    0.19749   1.00
C5       0.39465    0.32067    0.22950   1.00
H1       0.47253    0.31044    0.23335   1.00
H1       0.52770    0.28379    0.19707   1.00
H2       0.40163    0.32815    0.19872   1.00
H2       0.36253    0.31652    0.23128   1.00
N1       0.40605    0.35258    0.25546   1.00
C6       0.44190    0.36833    0.25863   1.00
C6       0.38243    0.37182    0.28028   1.00
C6       0.44127    0.39788    0.28594   1.00
C6       0.40344    0.40010    0.29971   1.00
H3       0.46719    0.35903    0.24212   1.00
H3       0.35169    0.36564    0.28419   1.00
H3       0.46564    0.41586    0.29480   1.00
H3       0.39242    0.42010    0.32146   1.00
H2       0.63772    0.21295    0.30625   1.00
H2       0.59999    0.22383    0.34069   1.00
N1       0.59477    0.16915    0.31337   1.00
C6       0.61922    0.13622    0.30768   1.00
C6       0.55715    0.15362    0.32111   1.00
C6       0.59723    0.10271    0.31175   1.00
C6       0.55909    0.11340    0.31998   1.00
H3       0.65008    0.13747    0.30111   1.00
H3       0.53124    0.17085    0.32657   1.00
H3       0.60795    0.07318    0.30891   1.00
H3       0.53495    0.09364    0.32462   1.00
C4       0.97915    0.25022    0.24969   1.00
C4       1.02085    0.24978    0.25031   1.00
C3       0.95751    0.23105    0.22018   1.00
C3       1.04252    0.21604    0.24050   1.00
C3       0.95738    0.26925    0.27919   1.00
C3       1.04259    0.28353    0.25999   1.00
C2       0.89482    0.24987    0.24991   1.00
C2       1.10518    0.24987    0.24991   1.00
C3a      0.91599    0.23080    0.22015   1.00
C3       1.08382    0.21616    0.24034   1.00
C3       0.91611    0.26903    0.27924   1.00
C3a      1.08403    0.28377    0.25987   1.00
H1       0.97294    0.21643    0.19683   1.00
H1       1.02750    0.18922    0.23322   1.00
C5       0.89410    0.21023    0.18813   1.00
H1       1.09933    0.18972    0.23269   1.00
H1       0.90056    0.28368    0.30251   1.00
C5       1.10535    0.32067    0.27050   1.00
H1       1.02747    0.31044    0.26665   1.00
H1       0.97230    0.28379    0.30293   1.00
H2       1.09837    0.32815    0.30128   1.00
H2       1.13747    0.31652    0.26872   1.00
N1       1.09395    0.35258    0.24454   1.00
C6       1.05810    0.36833    0.24137   1.00
C6       1.11757    0.37182    0.21972   1.00
C6       1.05873    0.39788    0.21406   1.00
C6       1.09656    0.40010    0.20029   1.00
H3       1.03281    0.35903    0.25788   1.00
H3       1.14831    0.36564    0.21581   1.00
H3       1.03436    0.41586    0.20520   1.00
H3       1.10758    0.42010    0.17854   1.00
H2       0.86228    0.21295    0.19375   1.00
H2       0.90001    0.22383    0.15931   1.00
N1       0.90523    0.16915    0.18663   1.00
C6       0.88078    0.13622    0.19232   1.00
C6       0.94285    0.15362    0.17889   1.00
C6       0.90277    0.10271    0.18825   1.00
C6       0.94091    0.11340    0.18002   1.00
H3       0.84992    0.13747    0.19889   1.00
H3       0.96876    0.17085    0.17343   1.00
H3       0.89205    0.07318    0.19109   1.00
H3       0.96505    0.09364    0.17538   1.00
C4       0.75031    0.02085    0.25022   1.00
C4       0.74969    -0.02085   0.24978   1.00
C3       0.77982    0.04249    0.23105   1.00
C3       0.75950    -0.04252   0.21604   1.00
C3       0.72081    0.04262    0.26925   1.00
C3       0.74001    -0.04259   0.28353   1.00
C2       0.75009    0.10518    0.24987   1.00
C2       0.75009    -0.10518   0.24987   1.00
C3a      0.77985    0.08401    0.23080   1.00
C3       0.75966    -0.08382   0.21616   1.00
C3       0.72076    0.08389    0.26903   1.00
C3a      0.74013    -0.08403   0.28377   1.00
H1       0.80317    0.02706    0.21643   1.00
H1       0.76678    -0.02750   0.18922   1.00
C5       0.81187    0.10590    0.21023   1.00
H1       0.76731    -0.09933   0.18972   1.00
H1       0.69749    0.09944    0.28368   1.00
C5       0.72950    -0.10535   0.32067   1.00
H1       0.73335    -0.02747   0.31044   1.00
H1       0.69707    0.02770    0.28379   1.00
H2       0.69872    -0.09837   0.32815   1.00
H2       0.73128    -0.13747   0.31652   1.00
N1       0.75546    -0.09395   0.35258   1.00
C6       0.75863    -0.05810   0.36833   1.00
C6       0.78028    -0.11757   0.37182   1.00
C6       0.78594    -0.05873   0.39788   1.00
C6       0.79971    -0.09656   0.40010   1.00
H3       0.74212    -0.03281   0.35903   1.00
H3       0.78419    -0.14831   0.36564   1.00
H3       0.79480    -0.03436   0.41586   1.00
H3       0.82146    -0.10758   0.42010   1.00
H2       0.80625    0.13772    0.21295   1.00
H2       0.84069    0.09999    0.22383   1.00
N1       0.81337    0.09477    0.16915   1.00
C6       0.80768    0.11922    0.13622   1.00
C6       0.82111    0.05715    0.15362   1.00
C6       0.81175    0.09723    0.10271   1.00
C6       0.81998    0.05909    0.11340   1.00
H3       0.80111    0.15008    0.13747   1.00
H3       0.82657    0.03124    0.17085   1.00
H3       0.80891    0.10795    0.07318   1.00
H3       0.82462    0.03495    0.09364   1.00
C4       0.75022    0.25031    0.02085   1.00
C4       0.74978    0.24969    -0.02085   1.00
C3       0.73105    0.27982    0.04249   1.00
C3       0.71604    0.25950    -0.04252   1.00
C3       0.76925    0.22081    0.04262   1.00
C3       0.78353    0.24001    -0.04259   1.00
C2       0.74987    0.25009    0.10518   1.00
C2       0.74987    0.25009    -0.10518   1.00
C3a      0.73080    0.27985    0.08401   1.00
C3       0.71616    0.25966    -0.08382   1.00
C3       0.76903    0.22076    0.08389   1.00
C3a      0.78377    0.24013    -0.08403   1.00
H1       0.71643    0.30317    0.02706   1.00
H1       0.68922    0.26678    -0.02750   1.00
C5       0.71023    0.31187    0.10590   1.00
H1       0.68972    0.26731    -0.09933   1.00
H1       0.78368    0.19749    0.09944   1.00
C5       0.82067    0.22950    -0.10535   1.00
H1       0.81044    0.23335    -0.02747   1.00
H1       0.78379    0.19707    0.02770   1.00
H2       0.82815    0.19872    -0.09837   1.00
H2       0.81652    0.23128    -0.13747   1.00
N1       0.85258    0.25546    -0.09395   1.00
C6       0.86833    0.25863    -0.05810   1.00
C6       0.87182    0.28028    -0.11757   1.00
C6       0.89788    0.28594    -0.05873   1.00
C6       0.90010    0.29971    -0.09656   1.00
H3       0.85903    0.24212    -0.03281   1.00
H3       0.86564    0.28419    -0.14831   1.00
H3       0.91586    0.29480    -0.03436   1.00
H3       0.92010    0.32146    -0.10758   1.00
H2       0.71295    0.30625    0.13772   1.00
H2       0.72383    0.34069    0.09999   1.00
N1       0.66915    0.31337    0.09477   1.00
C6       0.63622    0.30768    0.11922   1.00
C6       0.65362    0.32111    0.05715   1.00
C6       0.60271    0.31175    0.09723   1.00
C6       0.61340    0.31998    0.05909   1.00
H3       0.63747    0.30111    0.15008   1.00
H3       0.67085    0.32657    0.03124   1.00
H3       0.57318    0.30891    0.10795   1.00
H3       0.59364    0.32462    0.03495   1.00
C4       0.91522    0.91469    1.14415   1.00
C4       0.91478    0.91531    1.18585   1.00
C3       0.89605    0.88518    1.12251   1.00
C3       0.88104    0.90550    1.20752   1.00
C3       0.93425    0.94419    1.12238   1.00
C3       0.94853    0.92499    1.20759   1.00
C2       0.91487    0.91491    1.05982   1.00
C2       0.91487    0.91491    1.27018   1.00
C3a      0.89580    0.88515    1.08099   1.00
C3       0.88116    0.90534    1.24882   1.00
C3       0.93403    0.94424    1.08111   1.00
C3a      0.94877    0.92487    1.24903   1.00
H1       0.88143    0.86183    1.13794   1.00
H1       0.85422    0.89822    1.19250   1.00
C5       0.87523    0.85313    1.05910   1.00
H1       0.85472    0.89769    1.26433   1.00
H1       0.94868    0.96751    1.06556   1.00
C5       0.98567    0.93550    1.27035   1.00
H1       0.97544    0.93165    1.19247   1.00
H1       0.94879    0.96793    1.13730   1.00
H2       0.99315    0.96628    1.26337   1.00
H2       0.98152    0.93372    1.30247   1.00
N1       1.01758    0.90954    1.25895   1.00
C6       1.03333    0.90637    1.22310   1.00
C6       1.03682    0.88472    1.28257   1.00
C6       1.06288    0.87906    1.22373   1.00
C6       1.06510    0.86529    1.26156   1.00
H3       1.02403    0.92288    1.19781   1.00
H3       1.03064    0.88081    1.31331   1.00
H3       1.08086    0.87020    1.19936   1.00
H3       1.08510    0.84354    1.27258   1.00
H2       0.87795    0.85875    1.02728   1.00
H2       0.88883    0.82431    1.06501   1.00
N1       0.83415    0.85163    1.07023   1.00
C6       0.80122    0.85732    1.04578   1.00
C6       0.81862    0.84389    1.10785   1.00
C6       0.76771    0.85325    1.06777   1.00
C6       0.77840    0.84502    1.10591   1.00
H3       0.80247    0.86389    1.01492   1.00
H3       0.83585    0.83843    1.13376   1.00
H3       0.73818    0.85609    1.05705   1.00
H3       0.75864    0.84038    1.13005   1.00
C4       0.91469    1.14415    0.91522   1.00
C4       0.91531    1.18585    0.91478   1.00
C3       0.88518    1.12251    0.89605   1.00
C3       0.90550    1.20752    0.88104   1.00
C3       0.94419    1.12238    0.93425   1.00
C3       0.92499    1.20759    0.94853   1.00
C2       0.91491    1.05982    0.91487   1.00
C2       0.91491    1.27018    0.91487   1.00
C3a      0.88515    1.08099    0.89580   1.00
C3       0.90534    1.24882    0.88116   1.00
C3       0.94424    1.08111    0.93403   1.00
C3a      0.92487    1.24903    0.94877   1.00
H1       0.86183    1.13794    0.88143   1.00
H1       0.89822    1.19250    0.85422   1.00
C5       0.85313    1.05910    0.87523   1.00
H1       0.89769    1.26433    0.85472   1.00
H1       0.96751    1.06556    0.94868   1.00
C5       0.93550    1.27035    0.98567   1.00
H1       0.93165    1.19247    0.97544   1.00
H1       0.96793    1.13730    0.94879   1.00
H2       0.96628    1.26337    0.99315   1.00
H2       0.93372    1.30247    0.98152   1.00
N1       0.90954    1.25895    1.01758   1.00
C6       0.90637    1.22310    1.03333   1.00
C6       0.88472    1.28257    1.03682   1.00
C6       0.87906    1.22373    1.06288   1.00
C6       0.86529    1.26156    1.06510   1.00
H3       0.92288    1.19781    1.02403   1.00
H3       0.88081    1.31331    1.03064   1.00
H3       0.87020    1.19936    1.08086   1.00
H3       0.84354    1.27258    1.08510   1.00
H2       0.85875    1.02728    0.87795   1.00
H2       0.82431    1.06501    0.88883   1.00
N1       0.85163    1.07023    0.83415   1.00
C6       0.85732    1.04578    0.80122   1.00
C6       0.84389    1.10785    0.81862   1.00
C6       0.85325    1.06777    0.76771   1.00
C6       0.84502    1.10591    0.77840   1.00
H3       0.86389    1.01492    0.80247   1.00
H3       0.83843    1.13376    0.83585   1.00
H3       0.85609    1.05705    0.73818   1.00
H3       0.84038    1.13005    0.75864   1.00
C4       0.68585    0.91522    0.91531   1.00
C4       0.64415    0.91478    0.91469   1.00
C3       0.70749    0.89605    0.94482   1.00
C3       0.62248    0.88104    0.92450   1.00
C3       0.70762    0.93425    0.88581   1.00
C3       0.62241    0.94853    0.90501   1.00
C2       0.77018    0.91487    0.91509   1.00
C2       0.55982    0.91487    0.91509   1.00
C3a      0.74901    0.89580    0.94485   1.00
C3       0.58118    0.88116    0.92466   1.00
C3       0.74889    0.93403    0.88576   1.00
C3a      0.58097    0.94877    0.90513   1.00
H1       0.69206    0.88143    0.96817   1.00
H1       0.63750    0.85422    0.93178   1.00
C5       0.77090    0.87523    0.97687   1.00
H1       0.56567    0.85472    0.93231   1.00
H1       0.76444    0.94868    0.86249   1.00
C5       0.55965    0.98567    0.89450   1.00
H1       0.63753    0.97544    0.89835   1.00
H1       0.69270    0.94879    0.86207   1.00
H2       0.56663    0.99315    0.86372   1.00
H2       0.52753    0.98152    0.89628   1.00
N1       0.57105    1.01758    0.92046   1.00
C6       0.60690    1.03333    0.92363   1.00
C6       0.54743    1.03682    0.94528   1.00
C6       0.60627    1.06288    0.95094   1.00
C6       0.56844    1.06510    0.96471   1.00
H3       0.63219    1.02403    0.90712   1.00
H3       0.51669    1.03064    0.94919   1.00
H3       0.63064    1.08086    0.95980   1.00
H3       0.55742    1.08510    0.98646   1.00
H2       0.80272    0.87795    0.97125   1.00
H2       0.76499    0.88883    1.00569   1.00
N1       0.75977    0.83415    0.97837   1.00
C6       0.78422    0.80122    0.97268   1.00
C6       0.72215    0.81862    0.98611   1.00
C6       0.76223    0.76771    0.97675   1.00
C6       0.72409    0.77840    0.98498   1.00
H3       0.81508    0.80247    0.96611   1.00
H3       0.69624    0.83585    0.99157   1.00
H3       0.77295    0.73818    0.97391   1.00
H3       0.69995    0.75864    0.98962   1.00
C4       1.14415    0.91522    0.91469   1.00
C4       1.18585    0.91478    0.91531   1.00
C3       1.12251    0.89605    0.88518   1.00
C3       1.20752    0.88104    0.90550   1.00
C3       1.12238    0.93425    0.94419   1.00
C3       1.20759    0.94853    0.92499   1.00
C2       1.05982    0.91487    0.91491   1.00
C2       1.27018    0.91487    0.91491   1.00
C3a      1.08099    0.89580    0.88515   1.00
C3       1.24882    0.88116    0.90534   1.00
C3       1.08111    0.93403    0.94424   1.00
C3a      1.24903    0.94877    0.92487   1.00
H1       1.13794    0.88143    0.86183   1.00
H1       1.19250    0.85422    0.89822   1.00
C5       1.05910    0.87523    0.85313   1.00
H1       1.26433    0.85472    0.89769   1.00
H1       1.06556    0.94868    0.96751   1.00
C5       1.27035    0.98567    0.93550   1.00
H1       1.19247    0.97544    0.93165   1.00
H1       1.13730    0.94879    0.96793   1.00
H2       1.26337    0.99315    0.96628   1.00
H2       1.30247    0.98152    0.93372   1.00
N1       1.25895    1.01758    0.90954   1.00
C6       1.22310    1.03333    0.90637   1.00
C6       1.28257    1.03682    0.88472   1.00
C6       1.22373    1.06288    0.87906   1.00
C6       1.26156    1.06510    0.86529   1.00
H3       1.19781    1.02403    0.92288   1.00
H3       1.31331    1.03064    0.88081   1.00
H3       1.19936    1.08086    0.87020   1.00
H3       1.27258    1.08510    0.84354   1.00
H2       1.02728    0.87795    0.85875   1.00
H2       1.06501    0.88883    0.82431   1.00
N1       1.07023    0.83415    0.85163   1.00
C6       1.04578    0.80122    0.85732   1.00
C6       1.10785    0.81862    0.84389   1.00
C6       1.06777    0.76771    0.85325   1.00
C6       1.10591    0.77840    0.84502   1.00
H3       1.01492    0.80247    0.86389   1.00
H3       1.13376    0.83585    0.83843   1.00
H3       1.05705    0.73818    0.85609   1.00
H3       1.13005    0.75864    0.84038   1.00
C4       0.91531    0.68585    0.91522   1.00
C4       0.91469    0.64415    0.91478   1.00
C3       0.94482    0.70749    0.89605   1.00
C3       0.92450    0.62248    0.88104   1.00
C3       0.88581    0.70762    0.93425   1.00
C3       0.90501    0.62241    0.94853   1.00
C2       0.91509    0.77018    0.91487   1.00
C2       0.91509    0.55982    0.91487   1.00
C3a      0.94485    0.74901    0.89580   1.00
C3       0.92466    0.58118    0.88116   1.00
C3       0.88576    0.74889    0.93403   1.00
C3a      0.90513    0.58097    0.94877   1.00
H1       0.96817    0.69206    0.88143   1.00
H1       0.93178    0.63750    0.85422   1.00
C5       0.97687    0.77090    0.87523   1.00
H1       0.93231    0.56567    0.85472   1.00
H1       0.86249    0.76444    0.94868   1.00
C5       0.89450    0.55965    0.98567   1.00
H1       0.89835    0.63753    0.97544   1.00
H1       0.86207    0.69270    0.94879   1.00
H2       0.86372    0.56663    0.99315   1.00
H2       0.89628    0.52753    0.98152   1.00
N1       0.92046    0.57105    1.01758   1.00
C6       0.92363    0.60690    1.03333   1.00
C6       0.94528    0.54743    1.03682   1.00
C6       0.95094    0.60627    1.06288   1.00
C6       0.96471    0.56844    1.06510   1.00
H3       0.90712    0.63219    1.02403   1.00
H3       0.94919    0.51669    1.03064   1.00
H3       0.95980    0.63064    1.08086   1.00
H3       0.98646    0.55742    1.08510   1.00
H2       0.97125    0.80272    0.87795   1.00
H2       1.00569    0.76499    0.88883   1.00
N1       0.97837    0.75977    0.83415   1.00
C6       0.97268    0.78422    0.80122   1.00
C6       0.98611    0.72215    0.81862   1.00
C6       0.97675    0.76223    0.76771   1.00
C6       0.98498    0.72409    0.77840   1.00
H3       0.96611    0.81508    0.80247   1.00
H3       0.99157    0.69624    0.83585   1.00
H3       0.97391    0.77295    0.73818   1.00
H3       0.98962    0.69995    0.75864   1.00
C4       0.91522    0.91531    0.68585   1.00
C4       0.91478    0.91469    0.64415   1.00
C3       0.89605    0.94482    0.70749   1.00
C3       0.88104    0.92450    0.62248   1.00
C3       0.93425    0.88581    0.70762   1.00
C3       0.94853    0.90501    0.62241   1.00
C2       0.91487    0.91509    0.77018   1.00
C2       0.91487    0.91509    0.55982   1.00
C3a      0.89580    0.94485    0.74901   1.00
C3       0.88116    0.92466    0.58118   1.00
C3       0.93403    0.88576    0.74889   1.00
C3a      0.94877    0.90513    0.58097   1.00
H1       0.88143    0.96817    0.69206   1.00
H1       0.85422    0.93178    0.63750   1.00
C5       0.87523    0.97687    0.77090   1.00
H1       0.85472    0.93231    0.56567   1.00
H1       0.94868    0.86249    0.76444   1.00
C5       0.98567    0.89450    0.55965   1.00
H1       0.97544    0.89835    0.63753   1.00
H1       0.94879    0.86207    0.69270   1.00
H2       0.99315    0.86372    0.56663   1.00
H2       0.98152    0.89628    0.52753   1.00
N1       1.01758    0.92046    0.57105   1.00
C6       1.03333    0.92363    0.60690   1.00
C6       1.03682    0.94528    0.54743   1.00
C6       1.06288    0.95094    0.60627   1.00
C6       1.06510    0.96471    0.56844   1.00
H3       1.02403    0.90712    0.63219   1.00
H3       1.03064    0.94919    0.51669   1.00
H3       1.08086    0.95980    0.63064   1.00
H3       1.08510    0.98646    0.55742   1.00
H2       0.87795    0.97125    0.80272   1.00
H2       0.88883    1.00569    0.76499   1.00
N1       0.83415    0.97837    0.75977   1.00
C6       0.80122    0.97268    0.78422   1.00
C6       0.81862    0.98611    0.72215   1.00
C6       0.76771    0.97675    0.76223   1.00
C6       0.77840    0.98498    0.72409   1.00
H3       0.80247    0.96611    0.81508   1.00
H3       0.83585    0.99157    0.69624   1.00
H3       0.73818    0.97391    0.77295   1.00
H3       0.75864    0.98962    0.69995   1.00
C4       0.41522    0.41469    1.14415   1.00
C4       0.41478    0.41531    1.18585   1.00
C3       0.39605    0.38518    1.12251   1.00
C3       0.38104    0.40550    1.20752   1.00
C3       0.43425    0.44419    1.12238   1.00
C3       0.44853    0.42499    1.20759   1.00
C2       0.41487    0.41491    1.05982   1.00
C2       0.41487    0.41491    1.27018   1.00
C3a      0.39580    0.38515    1.08099   1.00
C3       0.38116    0.40534    1.24882   1.00
C3       0.43403    0.44424    1.08111   1.00
C3a      0.44877    0.42487    1.24903   1.00
H1       0.38143    0.36183    1.13794   1.00
H1       0.35422    0.39822    1.19250   1.00
C5       0.37523    0.35313    1.05910   1.00
H1       0.35472    0.39769    1.26433   1.00
H1       0.44868    0.46751    1.06556   1.00
C5       0.48567    0.43550    1.27035   1.00
H1       0.47544    0.43165    1.19247   1.00
H1       0.44879    0.46793    1.13730   1.00
H2       0.49315    0.46628    1.26337   1.00
H2       0.48152    0.43372    1.30247   1.00
N1       0.51758    0.40954    1.25895   1.00
C6       0.53333    0.40637    1.22310   1.00
C6       0.53682    0.38472    1.28257   1.00
C6       0.56288    0.37906    1.22373   1.00
C6       0.56510    0.36529    1.26156   1.00
H3       0.52403    0.42288    1.19781   1.00
H3       0.53064    0.38081    1.31331   1.00
H3       0.58086    0.37020    1.19936   1.00
H3       0.58510    0.34354    1.27258   1.00
H2       0.37795    0.35875    1.02728   1.00
H2       0.38883    0.32431    1.06501   1.00
N1       0.33415    0.35163    1.07023   1.00
C6       0.30122    0.35732    1.04578   1.00
C6       0.31862    0.34389    1.10785   1.00
C6       0.26771    0.35325    1.06777   1.00
C6       0.27840    0.34502    1.10591   1.00
H3       0.30247    0.36389    1.01492   1.00
H3       0.33585    0.33843    1.13376   1.00
H3       0.23818    0.35609    1.05705   1.00
H3       0.25864    0.34038    1.13005   1.00
C4       0.41469    0.64415    0.91522   1.00
C4       0.41531    0.68585    0.91478   1.00
C3       0.38518    0.62251    0.89605   1.00
C3       0.40550    0.70752    0.88104   1.00
C3       0.44419    0.62238    0.93425   1.00
C3       0.42499    0.70759    0.94853   1.00
C2       0.41491    0.55982    0.91487   1.00
C2       0.41491    0.77018    0.91487   1.00
C3a      0.38515    0.58099    0.89580   1.00
C3       0.40534    0.74882    0.88116   1.00
C3       0.44424    0.58111    0.93403   1.00
C3a      0.42487    0.74903    0.94877   1.00
H1       0.36183    0.63794    0.88143   1.00
H1       0.39822    0.69250    0.85422   1.00
C5       0.35313    0.55910    0.87523   1.00
H1       0.39769    0.76433    0.85472   1.00
H1       0.46751    0.56556    0.94868   1.00
C5       0.43550    0.77035    0.98567   1.00
H1       0.43165    0.69247    0.97544   1.00
H1       0.46793    0.63730    0.94879   1.00
H2       0.46628    0.76337    0.99315   1.00
H2       0.43372    0.80247    0.98152   1.00
N1       0.40954    0.75895    1.01758   1.00
C6       0.40637    0.72310    1.03333   1.00
C6       0.38472    0.78257    1.03682   1.00
C6       0.37906    0.72373    1.06288   1.00
C6       0.36529    0.76156    1.06510   1.00
H3       0.42288    0.69781    1.02403   1.00
H3       0.38081    0.81331    1.03064   1.00
H3       0.37020    0.69936    1.08086   1.00
H3       0.34354    0.77258    1.08510   1.00
H2       0.35875    0.52728    0.87795   1.00
H2       0.32431    0.56501    0.88883   1.00
N1       0.35163    0.57023    0.83415   1.00
C6       0.35732    0.54578    0.80122   1.00
C6       0.34389    0.60785    0.81862   1.00
C6       0.35325    0.56777    0.76771   1.00
C6       0.34502    0.60591    0.77840   1.00
H3       0.36389    0.51492    0.80247   1.00
H3       0.33843    0.63376    0.83585   1.00
H3       0.35609    0.55705    0.73818   1.00
H3       0.34038    0.63005    0.75864   1.00
C4       0.18585    0.41522    0.91531   1.00
C4       0.14415    0.41478    0.91469   1.00
C3       0.20749    0.39605    0.94482   1.00
C3       0.12248    0.38104    0.92450   1.00
C3       0.20762    0.43425    0.88581   1.00
C3       0.12241    0.44853    0.90501   1.00
C2       0.27018    0.41487    0.91509   1.00
C2       0.05982    0.41487    0.91509   1.00
C3a      0.24901    0.39580    0.94485   1.00
C3       0.08118    0.38116    0.92466   1.00
C3       0.24889    0.43403    0.88576   1.00
C3a      0.08097    0.44877    0.90513   1.00
H1       0.19206    0.38143    0.96817   1.00
H1       0.13750    0.35422    0.93178   1.00
C5       0.27090    0.37523    0.97687   1.00
H1       0.06567    0.35472    0.93231   1.00
H1       0.26444    0.44868    0.86249   1.00
C5       0.05965    0.48567    0.89450   1.00
H1       0.13753    0.47544    0.89835   1.00
H1       0.19270    0.44879    0.86207   1.00
H2       0.06663    0.49315    0.86372   1.00
H2       0.02753    0.48152    0.89628   1.00
N1       0.07105    0.51758    0.92046   1.00
C6       0.10690    0.53333    0.92363   1.00
C6       0.04743    0.53682    0.94528   1.00
C6       0.10627    0.56288    0.95094   1.00
C6       0.06844    0.56510    0.96471   1.00
H3       0.13219    0.52403    0.90712   1.00
H3       0.01669    0.53064    0.94919   1.00
H3       0.13064    0.58086    0.95980   1.00
H3       0.05742    0.58510    0.98646   1.00
H2       0.30272    0.37795    0.97125   1.00
H2       0.26499    0.38883    1.00569   1.00
N1       0.25977    0.33415    0.97837   1.00
C6       0.28422    0.30122    0.97268   1.00
C6       0.22215    0.31862    0.98611   1.00
C6       0.26223    0.26771    0.97675   1.00
C6       0.22409    0.27840    0.98498   1.00
H3       0.31508    0.30247    0.96611   1.00
H3       0.19624    0.33585    0.99157   1.00
H3       0.27295    0.23818    0.97391   1.00
H3       0.19995    0.25864    0.98962   1.00
C4       0.64415    0.41522    0.91469   1.00
C4       0.68585    0.41478    0.91531   1.00
C3       0.62251    0.39605    0.88518   1.00
C3       0.70752    0.38104    0.90550   1.00
C3       0.62238    0.43425    0.94419   1.00
C3       0.70759    0.44853    0.92499   1.00
C2       0.55982    0.41487    0.91491   1.00
C2       0.77018    0.41487    0.91491   1.00
C3a      0.58099    0.39580    0.88515   1.00
C3       0.74882    0.38116    0.90534   1.00
C3       0.58111    0.43403    0.94424   1.00
C3a      0.74903    0.44877    0.92487   1.00
H1       0.63794    0.38143    0.86183   1.00
H1       0.69250    0.35422    0.89822   1.00
C5       0.55910    0.37523    0.85313   1.00
H1       0.76433    0.35472    0.89769   1.00
H1       0.56556    0.44868    0.96751   1.00
C5       0.77035    0.48567    0.93550   1.00
H1       0.69247    0.47544    0.93165   1.00
H1       0.63730    0.44879    0.96793   1.00
H2       0.76337    0.49315    0.96628   1.00
H2       0.80247    0.48152    0.93372   1.00
N1       0.75895    0.51758    0.90954   1.00
C6       0.72310    0.53333    0.90637   1.00
C6       0.78257    0.53682    0.88472   1.00
C6       0.72373    0.56288    0.87906   1.00
C6       0.76156    0.56510    0.86529   1.00
H3       0.69781    0.52403    0.92288   1.00
H3       0.81331    0.53064    0.88081   1.00
H3       0.69936    0.58086    0.87020   1.00
H3       0.77258    0.58510    0.84354   1.00
H2       0.52728    0.37795    0.85875   1.00
H2       0.56501    0.38883    0.82431   1.00
N1       0.57023    0.33415    0.85163   1.00
C6       0.54578    0.30122    0.85732   1.00
C6       0.60785    0.31862    0.84389   1.00
C6       0.56777    0.26771    0.85325   1.00
C6       0.60591    0.27840    0.84502   1.00
H3       0.51492    0.30247    0.86389   1.00
H3       0.63376    0.33585    0.83843   1.00
H3       0.55705    0.23818    0.85609   1.00
H3       0.63005    0.25864    0.84038   1.00
C4       0.41531    0.18585    0.91522   1.00
C4       0.41469    0.14415    0.91478   1.00
C3       0.44482    0.20749    0.89605   1.00
C3       0.42450    0.12248    0.88104   1.00
C3       0.38581    0.20762    0.93425   1.00
C3       0.40501    0.12241    0.94853   1.00
C2       0.41509    0.27018    0.91487   1.00
C2       0.41509    0.05982    0.91487   1.00
C3a      0.44485    0.24901    0.89580   1.00
C3       0.42466    0.08118    0.88116   1.00
C3       0.38576    0.24889    0.93403   1.00
C3a      0.40513    0.08097    0.94877   1.00
H1       0.46817    0.19206    0.88143   1.00
H1       0.43178    0.13750    0.85422   1.00
C5       0.47687    0.27090    0.87523   1.00
H1       0.43231    0.06567    0.85472   1.00
H1       0.36249    0.26444    0.94868   1.00
C5       0.39450    0.05965    0.98567   1.00
H1       0.39835    0.13753    0.97544   1.00
H1       0.36207    0.19270    0.94879   1.00
H2       0.36372    0.06663    0.99315   1.00
H2       0.39628    0.02753    0.98152   1.00
N1       0.42046    0.07105    1.01758   1.00
C6       0.42363    0.10690    1.03333   1.00
C6       0.44528    0.04743    1.03682   1.00
C6       0.45094    0.10627    1.06288   1.00
C6       0.46471    0.06844    1.06510   1.00
H3       0.40712    0.13219    1.02403   1.00
H3       0.44919    0.01669    1.03064   1.00
H3       0.45980    0.13064    1.08086   1.00
H3       0.48646    0.05742    1.08510   1.00
H2       0.47125    0.30272    0.87795   1.00
H2       0.50569    0.26499    0.88883   1.00
N1       0.47837    0.25977    0.83415   1.00
C6       0.47268    0.28422    0.80122   1.00
C6       0.48611    0.22215    0.81862   1.00
C6       0.47675    0.26223    0.76771   1.00
C6       0.48498    0.22409    0.77840   1.00
H3       0.46611    0.31508    0.80247   1.00
H3       0.49157    0.19624    0.83585   1.00
H3       0.47391    0.27295    0.73818   1.00
H3       0.48962    0.19995    0.75864   1.00
C4       0.41522    0.41531    0.68585   1.00
C4       0.41478    0.41469    0.64415   1.00
C3       0.39605    0.44482    0.70749   1.00
C3       0.38104    0.42450    0.62248   1.00
C3       0.43425    0.38581    0.70762   1.00
C3       0.44853    0.40501    0.62241   1.00
C2       0.41487    0.41509    0.77018   1.00
C2       0.41487    0.41509    0.55982   1.00
C3a      0.39580    0.44485    0.74901   1.00
C3       0.38116    0.42466    0.58118   1.00
C3       0.43403    0.38576    0.74889   1.00
C3a      0.44877    0.40513    0.58097   1.00
H1       0.38143    0.46817    0.69206   1.00
H1       0.35422    0.43178    0.63750   1.00
C5       0.37523    0.47687    0.77090   1.00
H1       0.35472    0.43231    0.56567   1.00
H1       0.44868    0.36249    0.76444   1.00
C5       0.48567    0.39450    0.55965   1.00
H1       0.47544    0.39835    0.63753   1.00
H1       0.44879    0.36207    0.69270   1.00
H2       0.49315    0.36372    0.56663   1.00
H2       0.48152    0.39628    0.52753   1.00
N1       0.51758    0.42046    0.57105   1.00
C6       0.53333    0.42363    0.60690   1.00
C6       0.53682    0.44528    0.54743   1.00
C6       0.56288    0.45094    0.60627   1.00
C6       0.56510    0.46471    0.56844   1.00
H3       0.52403    0.40712    0.63219   1.00
H3       0.53064    0.44919    0.51669   1.00
H3       0.58086    0.45980    0.63064   1.00
H3       0.58510    0.48646    0.55742   1.00
H2       0.37795    0.47125    0.80272   1.00
H2       0.38883    0.50569    0.76499   1.00
N1       0.33415    0.47837    0.75977   1.00
C6       0.30122    0.47268    0.78422   1.00
C6       0.31862    0.48611    0.72215   1.00
C6       0.26771    0.47675    0.76223   1.00
C6       0.27840    0.48498    0.72409   1.00
H3       0.30247    0.46611    0.81508   1.00
H3       0.33585    0.49157    0.69624   1.00
H3       0.23818    0.47391    0.77295   1.00
H3       0.25864    0.48962    0.69995   1.00
C4       0.41522    0.91469    0.64415   1.00
C4       0.41478    0.91531    0.68585   1.00
C3       0.39605    0.88518    0.62251   1.00
C3       0.38104    0.90550    0.70752   1.00
C3       0.43425    0.94419    0.62238   1.00
C3       0.44853    0.92499    0.70759   1.00
C2       0.41487    0.91491    0.55982   1.00
C2       0.41487    0.91491    0.77018   1.00
C3a      0.39580    0.88515    0.58099   1.00
C3       0.38116    0.90534    0.74882   1.00
C3       0.43403    0.94424    0.58111   1.00
C3a      0.44877    0.92487    0.74903   1.00
H1       0.38143    0.86183    0.63794   1.00
H1       0.35422    0.89822    0.69250   1.00
C5       0.37523    0.85313    0.55910   1.00
H1       0.35472    0.89769    0.76433   1.00
H1       0.44868    0.96751    0.56556   1.00
C5       0.48567    0.93550    0.77035   1.00
H1       0.47544    0.93165    0.69247   1.00
H1       0.44879    0.96793    0.63730   1.00
H2       0.49315    0.96628    0.76337   1.00
H2       0.48152    0.93372    0.80247   1.00
N1       0.51758    0.90954    0.75895   1.00
C6       0.53333    0.90637    0.72310   1.00
C6       0.53682    0.88472    0.78257   1.00
C6       0.56288    0.87906    0.72373   1.00
C6       0.56510    0.86529    0.76156   1.00
H3       0.52403    0.92288    0.69781   1.00
H3       0.53064    0.88081    0.81331   1.00
H3       0.58086    0.87020    0.69936   1.00
H3       0.58510    0.84354    0.77258   1.00
H2       0.37795    0.85875    0.52728   1.00
H2       0.38883    0.82431    0.56501   1.00
N1       0.33415    0.85163    0.57023   1.00
C6       0.30122    0.85732    0.54578   1.00
C6       0.31862    0.84389    0.60785   1.00
C6       0.26771    0.85325    0.56777   1.00
C6       0.27840    0.84502    0.60591   1.00
H3       0.30247    0.86389    0.51492   1.00
H3       0.33585    0.83843    0.63376   1.00
H3       0.23818    0.85609    0.55705   1.00
H3       0.25864    0.84038    0.63005   1.00
C4       0.41469    1.14415    0.41522   1.00
C4       0.41531    1.18585    0.41478   1.00
C3       0.38518    1.12251    0.39605   1.00
C3       0.40550    1.20752    0.38104   1.00
C3       0.44419    1.12238    0.43425   1.00
C3       0.42499    1.20759    0.44853   1.00
C2       0.41491    1.05982    0.41487   1.00
C2       0.41491    1.27018    0.41487   1.00
C3a      0.38515    1.08099    0.39580   1.00
C3       0.40534    1.24882    0.38116   1.00
C3       0.44424    1.08111    0.43403   1.00
C3a      0.42487    1.24903    0.44877   1.00
H1       0.36183    1.13794    0.38143   1.00
H1       0.39822    1.19250    0.35422   1.00
C5       0.35313    1.05910    0.37523   1.00
H1       0.39769    1.26433    0.35472   1.00
H1       0.46751    1.06556    0.44868   1.00
C5       0.43550    1.27035    0.48567   1.00
H1       0.43165    1.19247    0.47544   1.00
H1       0.46793    1.13730    0.44879   1.00
H2       0.46628    1.26337    0.49315   1.00
H2       0.43372    1.30247    0.48152   1.00
N1       0.40954    1.25895    0.51758   1.00
C6       0.40637    1.22310    0.53333   1.00
C6       0.38472    1.28257    0.53682   1.00
C6       0.37906    1.22373    0.56288   1.00
C6       0.36529    1.26156    0.56510   1.00
H3       0.42288    1.19781    0.52403   1.00
H3       0.38081    1.31331    0.53064   1.00
H3       0.37020    1.19936    0.58086   1.00
H3       0.34354    1.27258    0.58510   1.00
H2       0.35875    1.02728    0.37795   1.00
H2       0.32431    1.06501    0.38883   1.00
N1       0.35163    1.07023    0.33415   1.00
C6       0.35732    1.04578    0.30122   1.00
C6       0.34389    1.10785    0.31862   1.00
C6       0.35325    1.06777    0.26771   1.00
C6       0.34502    1.10591    0.27840   1.00
H3       0.36389    1.01492    0.30247   1.00
H3       0.33843    1.13376    0.33585   1.00
H3       0.35609    1.05705    0.23818   1.00
H3       0.34038    1.13005    0.25864   1.00
C4       0.18585    0.91522    0.41531   1.00
C4       0.14415    0.91478    0.41469   1.00
C3       0.20749    0.89605    0.44482   1.00
C3       0.12248    0.88104    0.42450   1.00
C3       0.20762    0.93425    0.38581   1.00
C3       0.12241    0.94853    0.40501   1.00
C2       0.27018    0.91487    0.41509   1.00
C2       0.05982    0.91487    0.41509   1.00
C3a      0.24901    0.89580    0.44485   1.00
C3       0.08118    0.88116    0.42466   1.00
C3       0.24889    0.93403    0.38576   1.00
C3a      0.08097    0.94877    0.40513   1.00
H1       0.19206    0.88143    0.46817   1.00
H1       0.13750    0.85422    0.43178   1.00
C5       0.27090    0.87523    0.47687   1.00
H1       0.06567    0.85472    0.43231   1.00
H1       0.26444    0.94868    0.36249   1.00
C5       0.05965    0.98567    0.39450   1.00
H1       0.13753    0.97544    0.39835   1.00
H1       0.19270    0.94879    0.36207   1.00
H2       0.06663    0.99315    0.36372   1.00
H2       0.02753    0.98152    0.39628   1.00
N1       0.07105    1.01758    0.42046   1.00
C6       0.10690    1.03333    0.42363   1.00
C6       0.04743    1.03682    0.44528   1.00
C6       0.10627    1.06288    0.45094   1.00
C6       0.06844    1.06510    0.46471   1.00
H3       0.13219    1.02403    0.40712   1.00
H3       0.01669    1.03064    0.44919   1.00
H3       0.13064    1.08086    0.45980   1.00
H3       0.05742    1.08510    0.48646   1.00
H2       0.30272    0.87795    0.47125   1.00
H2       0.26499    0.88883    0.50569   1.00
N1       0.25977    0.83415    0.47837   1.00
C6       0.28422    0.80122    0.47268   1.00
C6       0.22215    0.81862    0.48611   1.00
C6       0.26223    0.76771    0.47675   1.00
C6       0.22409    0.77840    0.48498   1.00
H3       0.31508    0.80247    0.46611   1.00
H3       0.19624    0.83585    0.49157   1.00
H3       0.27295    0.73818    0.47391   1.00
H3       0.19995    0.75864    0.48962   1.00
C4       0.64415    0.91522    0.41469   1.00
C4       0.68585    0.91478    0.41531   1.00
C3       0.62251    0.89605    0.38518   1.00
C3       0.70752    0.88104    0.40550   1.00
C3       0.62238    0.93425    0.44419   1.00
C3       0.70759    0.94853    0.42499   1.00
C2       0.55982    0.91487    0.41491   1.00
C2       0.77018    0.91487    0.41491   1.00
C3a      0.58099    0.89580    0.38515   1.00
C3       0.74882    0.88116    0.40534   1.00
C3       0.58111    0.93403    0.44424   1.00
C3a      0.74903    0.94877    0.42487   1.00
H1       0.63794    0.88143    0.36183   1.00
H1       0.69250    0.85422    0.39822   1.00
C5       0.55910    0.87523    0.35313   1.00
H1       0.76433    0.85472    0.39769   1.00
H1       0.56556    0.94868    0.46751   1.00
C5       0.77035    0.98567    0.43550   1.00
H1       0.69247    0.97544    0.43165   1.00
H1       0.63730    0.94879    0.46793   1.00
H2       0.76337    0.99315    0.46628   1.00
H2       0.80247    0.98152    0.43372   1.00
N1       0.75895    1.01758    0.40954   1.00
C6       0.72310    1.03333    0.40637   1.00
C6       0.78257    1.03682    0.38472   1.00
C6       0.72373    1.06288    0.37906   1.00
C6       0.76156    1.06510    0.36529   1.00
H3       0.69781    1.02403    0.42288   1.00
H3       0.81331    1.03064    0.38081   1.00
H3       0.69936    1.08086    0.37020   1.00
H3       0.77258    1.08510    0.34354   1.00
H2       0.52728    0.87795    0.35875   1.00
H2       0.56501    0.88883    0.32431   1.00
N1       0.57023    0.83415    0.35163   1.00
C6       0.54578    0.80122    0.35732   1.00
C6       0.60785    0.81862    0.34389   1.00
C6       0.56777    0.76771    0.35325   1.00
C6       0.60591    0.77840    0.34502   1.00
H3       0.51492    0.80247    0.36389   1.00
H3       0.63376    0.83585    0.33843   1.00
H3       0.55705    0.73818    0.35609   1.00
H3       0.63005    0.75864    0.34038   1.00
C4       0.41531    0.68585    0.41522   1.00
C4       0.41469    0.64415    0.41478   1.00
C3       0.44482    0.70749    0.39605   1.00
C3       0.42450    0.62248    0.38104   1.00
C3       0.38581    0.70762    0.43425   1.00
C3       0.40501    0.62241    0.44853   1.00
C2       0.41509    0.77018    0.41487   1.00
C2       0.41509    0.55982    0.41487   1.00
C3a      0.44485    0.74901    0.39580   1.00
C3       0.42466    0.58118    0.38116   1.00
C3       0.38576    0.74889    0.43403   1.00
C3a      0.40513    0.58097    0.44877   1.00
H1       0.46817    0.69206    0.38143   1.00
H1       0.43178    0.63750    0.35422   1.00
C5       0.47687    0.77090    0.37523   1.00
H1       0.43231    0.56567    0.35472   1.00
H1       0.36249    0.76444    0.44868   1.00
C5       0.39450    0.55965    0.48567   1.00
H1       0.39835    0.63753    0.47544   1.00
H1       0.36207    0.69270    0.44879   1.00
H2       0.36372    0.56663    0.49315   1.00
H2       0.39628    0.52753    0.48152   1.00
N1       0.42046    0.57105    0.51758   1.00
C6       0.42363    0.60690    0.53333   1.00
C6       0.44528    0.54743    0.53682   1.00
C6       0.45094    0.60627    0.56288   1.00
C6       0.46471    0.56844    0.56510   1.00
H3       0.40712    0.63219    0.52403   1.00
H3       0.44919    0.51669    0.53064   1.00
H3       0.45980    0.63064    0.58086   1.00
H3       0.48646    0.55742    0.58510   1.00
H2       0.47125    0.80272    0.37795   1.00
H2       0.50569    0.76499    0.38883   1.00
N1       0.47837    0.75977    0.33415   1.00
C6       0.47268    0.78422    0.30122   1.00
C6       0.48611    0.72215    0.31862   1.00
C6       0.47675    0.76223    0.26771   1.00
C6       0.48498    0.72409    0.27840   1.00
H3       0.46611    0.81508    0.30247   1.00
H3       0.49157    0.69624    0.33585   1.00
H3       0.47391    0.77295    0.23818   1.00
H3       0.48962    0.69995    0.25864   1.00
C4       0.41522    0.91531    0.18585   1.00
C4       0.41478    0.91469    0.14415   1.00
C3       0.39605    0.94482    0.20749   1.00
C3       0.38104    0.92450    0.12248   1.00
C3       0.43425    0.88581    0.20762   1.00
C3       0.44853    0.90501    0.12241   1.00
C2       0.41487    0.91509    0.27018   1.00
C2       0.41487    0.91509    0.05982   1.00
C3a      0.39580    0.94485    0.24901   1.00
C3       0.38116    0.92466    0.08118   1.00
C3       0.43403    0.88576    0.24889   1.00
C3a      0.44877    0.90513    0.08097   1.00
H1       0.38143    0.96817    0.19206   1.00
H1       0.35422    0.93178    0.13750   1.00
C5       0.37523    0.97687    0.27090   1.00
H1       0.35472    0.93231    0.06567   1.00
H1       0.44868    0.86249    0.26444   1.00
C5       0.48567    0.89450    0.05965   1.00
H1       0.47544    0.89835    0.13753   1.00
H1       0.44879    0.86207    0.19270   1.00
H2       0.49315    0.86372    0.06663   1.00
H2       0.48152    0.89628    0.02753   1.00
N1       0.51758    0.92046    0.07105   1.00
C6       0.53333    0.92363    0.10690   1.00
C6       0.53682    0.94528    0.04743   1.00
C6       0.56288    0.95094    0.10627   1.00
C6       0.56510    0.96471    0.06844   1.00
H3       0.52403    0.90712    0.13219   1.00
H3       0.53064    0.94919    0.01669   1.00
H3       0.58086    0.95980    0.13064   1.00
H3       0.58510    0.98646    0.05742   1.00
H2       0.37795    0.97125    0.30272   1.00
H2       0.38883    1.00569    0.26499   1.00
N1       0.33415    0.97837    0.25977   1.00
C6       0.30122    0.97268    0.28422   1.00
C6       0.31862    0.98611    0.22215   1.00
C6       0.26771    0.97675    0.26223   1.00
C6       0.27840    0.98498    0.22409   1.00
H3       0.30247    0.96611    0.31508   1.00
H3       0.33585    0.99157    0.19624   1.00
H3       0.23818    0.97391    0.27295   1.00
H3       0.25864    0.98962    0.19995   1.00
C4       0.91522    0.41469    0.64415   1.00
C4       0.91478    0.41531    0.68585   1.00
C3       0.89605    0.38518    0.62251   1.00
C3       0.88104    0.40550    0.70752   1.00
C3       0.93425    0.44419    0.62238   1.00
C3       0.94853    0.42499    0.70759   1.00
C2       0.91487    0.41491    0.55982   1.00
C2       0.91487    0.41491    0.77018   1.00
C3a      0.89580    0.38515    0.58099   1.00
C3       0.88116    0.40534    0.74882   1.00
C3       0.93403    0.44424    0.58111   1.00
C3a      0.94877    0.42487    0.74903   1.00
H1       0.88143    0.36183    0.63794   1.00
H1       0.85422    0.39822    0.69250   1.00
C5       0.87523    0.35313    0.55910   1.00
H1       0.85472    0.39769    0.76433   1.00
H1       0.94868    0.46751    0.56556   1.00
C5       0.98567    0.43550    0.77035   1.00
H1       0.97544    0.43165    0.69247   1.00
H1       0.94879    0.46793    0.63730   1.00
H2       0.99315    0.46628    0.76337   1.00
H2       0.98152    0.43372    0.80247   1.00
N1       1.01758    0.40954    0.75895   1.00
C6       1.03333    0.40637    0.72310   1.00
C6       1.03682    0.38472    0.78257   1.00
C6       1.06288    0.37906    0.72373   1.00
C6       1.06510    0.36529    0.76156   1.00
H3       1.02403    0.42288    0.69781   1.00
H3       1.03064    0.38081    0.81331   1.00
H3       1.08086    0.37020    0.69936   1.00
H3       1.08510    0.34354    0.77258   1.00
H2       0.87795    0.35875    0.52728   1.00
H2       0.88883    0.32431    0.56501   1.00
N1       0.83415    0.35163    0.57023   1.00
C6       0.80122    0.35732    0.54578   1.00
C6       0.81862    0.34389    0.60785   1.00
C6       0.76771    0.35325    0.56777   1.00
C6       0.77840    0.34502    0.60591   1.00
H3       0.80247    0.36389    0.51492   1.00
H3       0.83585    0.33843    0.63376   1.00
H3       0.73818    0.35609    0.55705   1.00
H3       0.75864    0.34038    0.63005   1.00
C4       0.91469    0.64415    0.41522   1.00
C4       0.91531    0.68585    0.41478   1.00
C3       0.88518    0.62251    0.39605   1.00
C3       0.90550    0.70752    0.38104   1.00
C3       0.94419    0.62238    0.43425   1.00
C3       0.92499    0.70759    0.44853   1.00
C2       0.91491    0.55982    0.41487   1.00
C2       0.91491    0.77018    0.41487   1.00
C3a      0.88515    0.58099    0.39580   1.00
C3       0.90534    0.74882    0.38116   1.00
C3       0.94424    0.58111    0.43403   1.00
C3a      0.92487    0.74903    0.44877   1.00
H1       0.86183    0.63794    0.38143   1.00
H1       0.89822    0.69250    0.35422   1.00
C5       0.85313    0.55910    0.37523   1.00
H1       0.89769    0.76433    0.35472   1.00
H1       0.96751    0.56556    0.44868   1.00
C5       0.93550    0.77035    0.48567   1.00
H1       0.93165    0.69247    0.47544   1.00
H1       0.96793    0.63730    0.44879   1.00
H2       0.96628    0.76337    0.49315   1.00
H2       0.93372    0.80247    0.48152   1.00
N1       0.90954    0.75895    0.51758   1.00
C6       0.90637    0.72310    0.53333   1.00
C6       0.88472    0.78257    0.53682   1.00
C6       0.87906    0.72373    0.56288   1.00
C6       0.86529    0.76156    0.56510   1.00
H3       0.92288    0.69781    0.52403   1.00
H3       0.88081    0.81331    0.53064   1.00
H3       0.87020    0.69936    0.58086   1.00
H3       0.84354    0.77258    0.58510   1.00
H2       0.85875    0.52728    0.37795   1.00
H2       0.82431    0.56501    0.38883   1.00
N1       0.85163    0.57023    0.33415   1.00
C6       0.85732    0.54578    0.30122   1.00
C6       0.84389    0.60785    0.31862   1.00
C6       0.85325    0.56777    0.26771   1.00
C6       0.84502    0.60591    0.27840   1.00
H3       0.86389    0.51492    0.30247   1.00
H3       0.83843    0.63376    0.33585   1.00
H3       0.85609    0.55705    0.23818   1.00
H3       0.84038    0.63005    0.25864   1.00
C4       0.68585    0.41522    0.41531   1.00
C4       0.64415    0.41478    0.41469   1.00
C3       0.70749    0.39605    0.44482   1.00
C3       0.62248    0.38104    0.42450   1.00
C3       0.70762    0.43425    0.38581   1.00
C3       0.62241    0.44853    0.40501   1.00
C2       0.77018    0.41487    0.41509   1.00
C2       0.55982    0.41487    0.41509   1.00
C3a      0.74901    0.39580    0.44485   1.00
C3       0.58118    0.38116    0.42466   1.00
C3       0.74889    0.43403    0.38576   1.00
C3a      0.58097    0.44877    0.40513   1.00
H1       0.69206    0.38143    0.46817   1.00
H1       0.63750    0.35422    0.43178   1.00
C5       0.77090    0.37523    0.47687   1.00
H1       0.56567    0.35472    0.43231   1.00
H1       0.76444    0.44868    0.36249   1.00
C5       0.55965    0.48567    0.39450   1.00
H1       0.63753    0.47544    0.39835   1.00
H1       0.69270    0.44879    0.36207   1.00
H2       0.56663    0.49315    0.36372   1.00
H2       0.52753    0.48152    0.39628   1.00
N1       0.57105    0.51758    0.42046   1.00
C6       0.60690    0.53333    0.42363   1.00
C6       0.54743    0.53682    0.44528   1.00
C6       0.60627    0.56288    0.45094   1.00
C6       0.56844    0.56510    0.46471   1.00
H3       0.63219    0.52403    0.40712   1.00
H3       0.51669    0.53064    0.44919   1.00
H3       0.63064    0.58086    0.45980   1.00
H3       0.55742    0.58510    0.48646   1.00
H2       0.80272    0.37795    0.47125   1.00
H2       0.76499    0.38883    0.50569   1.00
N1       0.75977    0.33415    0.47837   1.00
C6       0.78422    0.30122    0.47268   1.00
C6       0.72215    0.31862    0.48611   1.00
C6       0.76223    0.26771    0.47675   1.00
C6       0.72409    0.27840    0.48498   1.00
H3       0.81508    0.30247    0.46611   1.00
H3       0.69624    0.33585    0.49157   1.00
H3       0.77295    0.23818    0.47391   1.00
H3       0.69995    0.25864    0.48962   1.00
C4       1.14415    0.41522    0.41469   1.00
C4       1.18585    0.41478    0.41531   1.00
C3       1.12251    0.39605    0.38518   1.00
C3       1.20752    0.38104    0.40550   1.00
C3       1.12238    0.43425    0.44419   1.00
C3       1.20759    0.44853    0.42499   1.00
C2       1.05982    0.41487    0.41491   1.00
C2       1.27018    0.41487    0.41491   1.00
C3a      1.08099    0.39580    0.38515   1.00
C3       1.24882    0.38116    0.40534   1.00
C3       1.08111    0.43403    0.44424   1.00
C3a      1.24903    0.44877    0.42487   1.00
H1       1.13794    0.38143    0.36183   1.00
H1       1.19250    0.35422    0.39822   1.00
C5       1.05910    0.37523    0.35313   1.00
H1       1.26433    0.35472    0.39769   1.00
H1       1.06556    0.44868    0.46751   1.00
C5       1.27035    0.48567    0.43550   1.00
H1       1.19247    0.47544    0.43165   1.00
H1       1.13730    0.44879    0.46793   1.00
H2       1.26337    0.49315    0.46628   1.00
H2       1.30247    0.48152    0.43372   1.00
N1       1.25895    0.51758    0.40954   1.00
C6       1.22310    0.53333    0.40637   1.00
C6       1.28257    0.53682    0.38472   1.00
C6       1.22373    0.56288    0.37906   1.00
C6       1.26156    0.56510    0.36529   1.00
H3       1.19781    0.52403    0.42288   1.00
H3       1.31331    0.53064    0.38081   1.00
H3       1.19936    0.58086    0.37020   1.00
H3       1.27258    0.58510    0.34354   1.00
H2       1.02728    0.37795    0.35875   1.00
H2       1.06501    0.38883    0.32431   1.00
N1       1.07023    0.33415    0.35163   1.00
C6       1.04578    0.30122    0.35732   1.00
C6       1.10785    0.31862    0.34389   1.00
C6       1.06777    0.26771    0.35325   1.00
C6       1.10591    0.27840    0.34502   1.00
H3       1.01492    0.30247    0.36389   1.00
H3       1.13376    0.33585    0.33843   1.00
H3       1.05705    0.23818    0.35609   1.00
H3       1.13005    0.25864    0.34038   1.00
C4       0.91531    0.18585    0.41522   1.00
C4       0.91469    0.14415    0.41478   1.00
C3       0.94482    0.20749    0.39605   1.00
C3       0.92450    0.12248    0.38104   1.00
C3       0.88581    0.20762    0.43425   1.00
C3       0.90501    0.12241    0.44853   1.00
C2       0.91509    0.27018    0.41487   1.00
C2       0.91509    0.05982    0.41487   1.00
C3a      0.94485    0.24901    0.39580   1.00
C3       0.92466    0.08118    0.38116   1.00
C3       0.88576    0.24889    0.43403   1.00
C3a      0.90513    0.08097    0.44877   1.00
H1       0.96817    0.19206    0.38143   1.00
H1       0.93178    0.13750    0.35422   1.00
C5       0.97687    0.27090    0.37523   1.00
H1       0.93231    0.06567    0.35472   1.00
H1       0.86249    0.26444    0.44868   1.00
C5       0.89450    0.05965    0.48567   1.00
H1       0.89835    0.13753    0.47544   1.00
H1       0.86207    0.19270    0.44879   1.00
H2       0.86372    0.06663    0.49315   1.00
H2       0.89628    0.02753    0.48152   1.00
N1       0.92046    0.07105    0.51758   1.00
C6       0.92363    0.10690    0.53333   1.00
C6       0.94528    0.04743    0.53682   1.00
C6       0.95094    0.10627    0.56288   1.00
C6       0.96471    0.06844    0.56510   1.00
H3       0.90712    0.13219    0.52403   1.00
H3       0.94919    0.01669    0.53064   1.00
H3       0.95980    0.13064    0.58086   1.00
H3       0.98646    0.05742    0.58510   1.00
H2       0.97125    0.30272    0.37795   1.00
H2       1.00569    0.26499    0.38883   1.00
N1       0.97837    0.25977    0.33415   1.00
C6       0.97268    0.28422    0.30122   1.00
C6       0.98611    0.22215    0.31862   1.00
C6       0.97675    0.26223    0.26771   1.00
C6       0.98498    0.22409    0.27840   1.00
H3       0.96611    0.31508    0.30247   1.00
H3       0.99157    0.19624    0.33585   1.00
H3       0.97391    0.27295    0.23818   1.00
H3       0.98962    0.19995    0.25864   1.00
C4       0.91522    0.41531    0.18585   1.00
C4       0.91478    0.41469    0.14415   1.00
C3       0.89605    0.44482    0.20749   1.00
C3       0.88104    0.42450    0.12248   1.00
C3       0.93425    0.38581    0.20762   1.00
C3       0.94853    0.40501    0.12241   1.00
C2       0.91487    0.41509    0.27018   1.00
C2       0.91487    0.41509    0.05982   1.00
C3a      0.89580    0.44485    0.24901   1.00
C3       0.88116    0.42466    0.08118   1.00
C3       0.93403    0.38576    0.24889   1.00
C3a      0.94877    0.40513    0.08097   1.00
H1       0.88143    0.46817    0.19206   1.00
H1       0.85422    0.43178    0.13750   1.00
C5       0.87523    0.47687    0.27090   1.00
H1       0.85472    0.43231    0.06567   1.00
H1       0.94868    0.36249    0.26444   1.00
C5       0.98567    0.39450    0.05965   1.00
H1       0.97544    0.39835    0.13753   1.00
H1       0.94879    0.36207    0.19270   1.00
H2       0.99315    0.36372    0.06663   1.00
H2       0.98152    0.39628    0.02753   1.00
N1       1.01758    0.42046    0.07105   1.00
C6       1.03333    0.42363    0.10690   1.00
C6       1.03682    0.44528    0.04743   1.00
C6       1.06288    0.45094    0.10627   1.00
C6       1.06510    0.46471    0.06844   1.00
H3       1.02403    0.40712    0.13219   1.00
H3       1.03064    0.44919    0.01669   1.00
H3       1.08086    0.45980    0.13064   1.00
H3       1.08510    0.48646    0.05742   1.00
H2       0.87795    0.47125    0.30272   1.00
H2       0.88883    0.50569    0.26499   1.00
N1       0.83415    0.47837    0.25977   1.00
C6       0.80122    0.47268    0.28422   1.00
C6       0.81862    0.48611    0.22215   1.00
C6       0.76771    0.47675    0.26223   1.00
C6       0.77840    0.48498    0.22409   1.00
H3       0.80247    0.46611    0.31508   1.00
H3       0.83585    0.49157    0.19624   1.00
H3       0.73818    0.47391    0.27295   1.00
H3       0.75864    0.48962    0.19995   1.00
