data_IRMOF10_SG202_interpen_Ligand7cp_label_f.

_audit_creation_method             'generated by an auxiliary program of Tobunporous'

_symmetry_space_group_name_H-M     'P 1'
_symmetry_Int_Tables_number        1
_symmetry_cell_setting             triclinic

_cell_length_a                    34.2800
_cell_length_b                    34.2800
_cell_length_c                    34.2800
_cell_angle_alpha                 90.0000
_cell_angle_beta                  90.0000
_cell_angle_gamma                 90.0000

loop_
_atom_site_label
_atom_site_fract_x
_atom_site_fract_y
_atom_site_fract_z
_atom_site_occupancy
O1       0.75000    0.75000    0.75000   1.00
Zn1      0.71720    0.78280    0.78280   1.00
Zn1      0.78280    0.71720    0.78280   1.00
Zn1      0.78280    0.78280    0.71720   1.00
Zn1      0.71720    0.71720    0.71720   1.00
O2       0.72650    0.77350    0.83820   1.00
O2       0.72650    0.83820    0.77350   1.00
O2       0.66180    0.77350    0.77350   1.00
O2       0.77350    0.72650    0.83820   1.00
O2       0.83820    0.72650    0.77350   1.00
O2       0.77350    0.66180    0.77350   1.00
O2       0.77350    0.83820    0.72650   1.00
O2       0.83820    0.77350    0.72650   1.00
O2       0.77350    0.77350    0.66180   1.00
O2       0.66180    0.72650    0.72650   1.00
O2       0.72650    0.66180    0.72650   1.00
O2       0.72650    0.72650    0.66180   1.00
C1       0.75000    0.75000    0.85520   1.00
C1       0.75000    0.85520    0.75000   1.00
C1       0.64480    0.75000    0.75000   1.00
C1       0.85520    0.75000    0.75000   1.00
C1       0.75000    0.64480    0.75000   1.00
C1       0.75000    0.75000    0.64480   1.00
O1       0.25000    0.25000    0.75000   1.00
Zn1      0.21720    0.28280    0.78280   1.00
Zn1      0.28280    0.21720    0.78280   1.00
Zn1      0.28280    0.28280    0.71720   1.00
Zn1      0.21720    0.21720    0.71720   1.00
O2       0.22650    0.27350    0.83820   1.00
O2       0.22650    0.33820    0.77350   1.00
O2       0.16180    0.27350    0.77350   1.00
O2       0.27350    0.22650    0.83820   1.00
O2       0.33820    0.22650    0.77350   1.00
O2       0.27350    0.16180    0.77350   1.00
O2       0.27350    0.33820    0.72650   1.00
O2       0.33820    0.27350    0.72650   1.00
O2       0.27350    0.27350    0.66180   1.00
O2       0.16180    0.22650    0.72650   1.00
O2       0.22650    0.16180    0.72650   1.00
O2       0.22650    0.22650    0.66180   1.00
C1       0.25000    0.25000    0.85520   1.00
C1       0.25000    0.35520    0.75000   1.00
C1       0.14480    0.25000    0.75000   1.00
C1       0.35520    0.25000    0.75000   1.00
C1       0.25000    0.14480    0.75000   1.00
C1       0.25000    0.25000    0.64480   1.00
O1       0.25000    0.75000    0.25000   1.00
Zn1      0.21720    0.78280    0.28280   1.00
Zn1      0.28280    0.71720    0.28280   1.00
Zn1      0.28280    0.78280    0.21720   1.00
Zn1      0.21720    0.71720    0.21720   1.00
O2       0.22650    0.77350    0.33820   1.00
O2       0.22650    0.83820    0.27350   1.00
O2       0.16180    0.77350    0.27350   1.00
O2       0.27350    0.72650    0.33820   1.00
O2       0.33820    0.72650    0.27350   1.00
O2       0.27350    0.66180    0.27350   1.00
O2       0.27350    0.83820    0.22650   1.00
O2       0.33820    0.77350    0.22650   1.00
O2       0.27350    0.77350    0.16180   1.00
O2       0.16180    0.72650    0.22650   1.00
O2       0.22650    0.66180    0.22650   1.00
O2       0.22650    0.72650    0.16180   1.00
C1       0.25000    0.75000    0.35520   1.00
C1       0.25000    0.85520    0.25000   1.00
C1       0.14480    0.75000    0.25000   1.00
C1       0.35520    0.75000    0.25000   1.00
C1       0.25000    0.64480    0.25000   1.00
C1       0.25000    0.75000    0.14480   1.00
O1       0.75000    0.25000    0.25000   1.00
Zn1      0.71720    0.28280    0.28280   1.00
Zn1      0.78280    0.21720    0.28280   1.00
Zn1      0.78280    0.28280    0.21720   1.00
Zn1      0.71720    0.21720    0.21720   1.00
O2       0.72650    0.27350    0.33820   1.00
O2       0.72650    0.33820    0.27350   1.00
O2       0.66180    0.27350    0.27350   1.00
O2       0.77350    0.22650    0.33820   1.00
O2       0.83820    0.22650    0.27350   1.00
O2       0.77350    0.16180    0.27350   1.00
O2       0.77350    0.33820    0.22650   1.00
O2       0.83820    0.27350    0.22650   1.00
O2       0.77350    0.27350    0.16180   1.00
O2       0.66180    0.22650    0.22650   1.00
O2       0.72650    0.16180    0.22650   1.00
O2       0.72650    0.22650    0.16180   1.00
C1       0.75000    0.25000    0.35520   1.00
C1       0.75000    0.35520    0.25000   1.00
C1       0.64480    0.25000    0.25000   1.00
C1       0.85520    0.25000    0.25000   1.00
C1       0.75000    0.14480    0.25000   1.00
C1       0.75000    0.25000    0.14480   1.00
O1       0.25000    0.25000    0.25000   1.00
Zn1      0.28280    0.21720    0.21720   1.00
Zn1      0.21720    0.28280    0.21720   1.00
Zn1      0.21720    0.21720    0.28280   1.00
Zn1      0.28280    0.28280    0.28280   1.00
O2       0.27350    0.22650    0.16180   1.00
O2       0.27350    0.16180    0.22650   1.00
O2       0.33820    0.22650    0.22650   1.00
O2       0.22650    0.27350    0.16180   1.00
O2       0.16180    0.27350    0.22650   1.00
O2       0.22650    0.33820    0.22650   1.00
O2       0.22650    0.16180    0.27350   1.00
O2       0.16180    0.22650    0.27350   1.00
O2       0.22650    0.22650    0.33820   1.00
O2       0.33820    0.27350    0.27350   1.00
O2       0.27350    0.33820    0.27350   1.00
O2       0.27350    0.27350    0.33820   1.00
C1       0.25000    0.25000    0.14480   1.00
C1       0.25000    0.14480    0.25000   1.00
C1       0.35520    0.25000    0.25000   1.00
C1       0.14480    0.25000    0.25000   1.00
C1       0.25000    0.35520    0.25000   1.00
C1       0.25000    0.25000    0.35520   1.00
O1       0.75000    0.75000    0.25000   1.00
Zn1      0.78280    0.71720    0.21720   1.00
Zn1      0.71720    0.78280    0.21720   1.00
Zn1      0.71720    0.71720    0.28280   1.00
Zn1      0.78280    0.78280    0.28280   1.00
O2       0.77350    0.72650    0.16180   1.00
O2       0.77350    0.66180    0.22650   1.00
O2       0.83820    0.72650    0.22650   1.00
O2       0.72650    0.77350    0.16180   1.00
O2       0.66180    0.77350    0.22650   1.00
O2       0.72650    0.83820    0.22650   1.00
O2       0.72650    0.66180    0.27350   1.00
O2       0.66180    0.72650    0.27350   1.00
O2       0.72650    0.72650    0.33820   1.00
O2       0.83820    0.77350    0.27350   1.00
O2       0.77350    0.83820    0.27350   1.00
O2       0.77350    0.77350    0.33820   1.00
C1       0.75000    0.75000    0.14480   1.00
C1       0.75000    0.64480    0.25000   1.00
C1       0.85520    0.75000    0.25000   1.00
C1       0.64480    0.75000    0.25000   1.00
C1       0.75000    0.85520    0.25000   1.00
C1       0.75000    0.75000    0.35520   1.00
O1       0.75000    0.25000    0.75000   1.00
Zn1      0.78280    0.21720    0.71720   1.00
Zn1      0.71720    0.28280    0.71720   1.00
Zn1      0.71720    0.21720    0.78280   1.00
Zn1      0.78280    0.28280    0.78280   1.00
O2       0.77350    0.22650    0.66180   1.00
O2       0.77350    0.16180    0.72650   1.00
O2       0.83820    0.22650    0.72650   1.00
O2       0.72650    0.27350    0.66180   1.00
O2       0.66180    0.27350    0.72650   1.00
O2       0.72650    0.33820    0.72650   1.00
O2       0.72650    0.16180    0.77350   1.00
O2       0.66180    0.22650    0.77350   1.00
O2       0.72650    0.22650    0.83820   1.00
O2       0.83820    0.27350    0.77350   1.00
O2       0.77350    0.33820    0.77350   1.00
O2       0.77350    0.27350    0.83820   1.00
C1       0.75000    0.25000    0.64480   1.00
C1       0.75000    0.14480    0.75000   1.00
C1       0.85520    0.25000    0.75000   1.00
C1       0.64480    0.25000    0.75000   1.00
C1       0.75000    0.35520    0.75000   1.00
C1       0.75000    0.25000    0.85520   1.00
O1       0.25000    0.75000    0.75000   1.00
Zn1      0.28280    0.71720    0.71720   1.00
Zn1      0.21720    0.78280    0.71720   1.00
Zn1      0.21720    0.71720    0.78280   1.00
Zn1      0.28280    0.78280    0.78280   1.00
O2       0.27350    0.72650    0.66180   1.00
O2       0.27350    0.66180    0.72650   1.00
O2       0.33820    0.72650    0.72650   1.00
O2       0.22650    0.77350    0.66180   1.00
O2       0.16180    0.77350    0.72650   1.00
O2       0.22650    0.83820    0.72650   1.00
O2       0.22650    0.66180    0.77350   1.00
O2       0.16180    0.72650    0.77350   1.00
O2       0.22650    0.72650    0.83820   1.00
O2       0.33820    0.77350    0.77350   1.00
O2       0.27350    0.83820    0.77350   1.00
O2       0.27350    0.77350    0.83820   1.00
C1       0.25000    0.75000    0.64480   1.00
C1       0.25000    0.64480    0.75000   1.00
C1       0.35520    0.75000    0.75000   1.00
C1       0.14480    0.75000    0.75000   1.00
C1       0.25000    0.85520    0.75000   1.00
C1       0.25000    0.75000    0.85520   1.00
O1       0.91500    0.91500    0.91500   1.00
Zn1      0.88220    0.94780    0.94780   1.00
Zn1      0.94780    0.88220    0.94780   1.00
Zn1      0.94780    0.94780    0.88220   1.00
Zn1      0.88220    0.88220    0.88220   1.00
O2       0.89150    0.93850    1.00320   1.00
O2       0.89150    1.00320    0.93850   1.00
O2       0.82680    0.93850    0.93850   1.00
O2       0.93850    0.89150    1.00320   1.00
O2       1.00320    0.89150    0.93850   1.00
O2       0.93850    0.82680    0.93850   1.00
O2       0.93850    1.00320    0.89150   1.00
O2       1.00320    0.93850    0.89150   1.00
O2       0.93850    0.93850    0.82680   1.00
O2       0.82680    0.89150    0.89150   1.00
O2       0.89150    0.82680    0.89150   1.00
O2       0.89150    0.89150    0.82680   1.00
C1       0.91500    0.91500    1.02020   1.00
C1       0.91500    1.02020    0.91500   1.00
C1       0.80980    0.91500    0.91500   1.00
C1       1.02020    0.91500    0.91500   1.00
C1       0.91500    0.80980    0.91500   1.00
C1       0.91500    0.91500    0.80980   1.00
O1       0.41500    0.41500    0.91500   1.00
Zn1      0.38220    0.44780    0.94780   1.00
Zn1      0.44780    0.38220    0.94780   1.00
Zn1      0.44780    0.44780    0.88220   1.00
Zn1      0.38220    0.38220    0.88220   1.00
O2       0.39150    0.43850    1.00320   1.00
O2       0.39150    0.50320    0.93850   1.00
O2       0.32680    0.43850    0.93850   1.00
O2       0.43850    0.39150    1.00320   1.00
O2       0.50320    0.39150    0.93850   1.00
O2       0.43850    0.32680    0.93850   1.00
O2       0.43850    0.50320    0.89150   1.00
O2       0.50320    0.43850    0.89150   1.00
O2       0.43850    0.43850    0.82680   1.00
O2       0.32680    0.39150    0.89150   1.00
O2       0.39150    0.32680    0.89150   1.00
O2       0.39150    0.39150    0.82680   1.00
C1       0.41500    0.41500    1.02020   1.00
C1       0.41500    0.52020    0.91500   1.00
C1       0.30980    0.41500    0.91500   1.00
C1       0.52020    0.41500    0.91500   1.00
C1       0.41500    0.30980    0.91500   1.00
C1       0.41500    0.41500    0.80980   1.00
O1       0.41500    0.91500    0.41500   1.00
Zn1      0.38220    0.94780    0.44780   1.00
Zn1      0.44780    0.88220    0.44780   1.00
Zn1      0.44780    0.94780    0.38220   1.00
Zn1      0.38220    0.88220    0.38220   1.00
O2       0.39150    0.93850    0.50320   1.00
O2       0.39150    1.00320    0.43850   1.00
O2       0.32680    0.93850    0.43850   1.00
O2       0.43850    0.89150    0.50320   1.00
O2       0.50320    0.89150    0.43850   1.00
O2       0.43850    0.82680    0.43850   1.00
O2       0.43850    1.00320    0.39150   1.00
O2       0.50320    0.93850    0.39150   1.00
O2       0.43850    0.93850    0.32680   1.00
O2       0.32680    0.89150    0.39150   1.00
O2       0.39150    0.82680    0.39150   1.00
O2       0.39150    0.89150    0.32680   1.00
C1       0.41500    0.91500    0.52020   1.00
C1       0.41500    1.02020    0.41500   1.00
C1       0.30980    0.91500    0.41500   1.00
C1       0.52020    0.91500    0.41500   1.00
C1       0.41500    0.80980    0.41500   1.00
C1       0.41500    0.91500    0.30980   1.00
O1       0.91500    0.41500    0.41500   1.00
Zn1      0.88220    0.44780    0.44780   1.00
Zn1      0.94780    0.38220    0.44780   1.00
Zn1      0.94780    0.44780    0.38220   1.00
Zn1      0.88220    0.38220    0.38220   1.00
O2       0.89150    0.43850    0.50320   1.00
O2       0.89150    0.50320    0.43850   1.00
O2       0.82680    0.43850    0.43850   1.00
O2       0.93850    0.39150    0.50320   1.00
O2       1.00320    0.39150    0.43850   1.00
O2       0.93850    0.32680    0.43850   1.00
O2       0.93850    0.50320    0.39150   1.00
O2       1.00320    0.43850    0.39150   1.00
O2       0.93850    0.43850    0.32680   1.00
O2       0.82680    0.39150    0.39150   1.00
O2       0.89150    0.32680    0.39150   1.00
O2       0.89150    0.39150    0.32680   1.00
C1       0.91500    0.41500    0.52020   1.00
C1       0.91500    0.52020    0.41500   1.00
C1       0.80980    0.41500    0.41500   1.00
C1       1.02020    0.41500    0.41500   1.00
C1       0.91500    0.30980    0.41500   1.00
C1       0.91500    0.41500    0.30980   1.00
O1       0.41500    0.41500    0.41500   1.00
Zn1      0.44780    0.38220    0.38220   1.00
Zn1      0.38220    0.44780    0.38220   1.00
Zn1      0.38220    0.38220    0.44780   1.00
Zn1      0.44780    0.44780    0.44780   1.00
O2       0.43850    0.39150    0.32680   1.00
O2       0.43850    0.32680    0.39150   1.00
O2       0.50320    0.39150    0.39150   1.00
O2       0.39150    0.43850    0.32680   1.00
O2       0.32680    0.43850    0.39150   1.00
O2       0.39150    0.50320    0.39150   1.00
O2       0.39150    0.32680    0.43850   1.00
O2       0.32680    0.39150    0.43850   1.00
O2       0.39150    0.39150    0.50320   1.00
O2       0.50320    0.43850    0.43850   1.00
O2       0.43850    0.50320    0.43850   1.00
O2       0.43850    0.43850    0.50320   1.00
C1       0.41500    0.41500    0.30980   1.00
C1       0.41500    0.30980    0.41500   1.00
C1       0.52020    0.41500    0.41500   1.00
C1       0.30980    0.41500    0.41500   1.00
C1       0.41500    0.52020    0.41500   1.00
C1       0.41500    0.41500    0.52020   1.00
O1       0.91500    0.91500    0.41500   1.00
Zn1      0.94780    0.88220    0.38220   1.00
Zn1      0.88220    0.94780    0.38220   1.00
Zn1      0.88220    0.88220    0.44780   1.00
Zn1      0.94780    0.94780    0.44780   1.00
O2       0.93850    0.89150    0.32680   1.00
O2       0.93850    0.82680    0.39150   1.00
O2       1.00320    0.89150    0.39150   1.00
O2       0.89150    0.93850    0.32680   1.00
O2       0.82680    0.93850    0.39150   1.00
O2       0.89150    1.00320    0.39150   1.00
O2       0.89150    0.82680    0.43850   1.00
O2       0.82680    0.89150    0.43850   1.00
O2       0.89150    0.89150    0.50320   1.00
O2       1.00320    0.93850    0.43850   1.00
O2       0.93850    1.00320    0.43850   1.00
O2       0.93850    0.93850    0.50320   1.00
C1       0.91500    0.91500    0.30980   1.00
C1       0.91500    0.80980    0.41500   1.00
C1       1.02020    0.91500    0.41500   1.00
C1       0.80980    0.91500    0.41500   1.00
C1       0.91500    1.02020    0.41500   1.00
C1       0.91500    0.91500    0.52020   1.00
O1       0.91500    0.41500    0.91500   1.00
Zn1      0.94780    0.38220    0.88220   1.00
Zn1      0.88220    0.44780    0.88220   1.00
Zn1      0.88220    0.38220    0.94780   1.00
Zn1      0.94780    0.44780    0.94780   1.00
O2       0.93850    0.39150    0.82680   1.00
O2       0.93850    0.32680    0.89150   1.00
O2       1.00320    0.39150    0.89150   1.00
O2       0.89150    0.43850    0.82680   1.00
O2       0.82680    0.43850    0.89150   1.00
O2       0.89150    0.50320    0.89150   1.00
O2       0.89150    0.32680    0.93850   1.00
O2       0.82680    0.39150    0.93850   1.00
O2       0.89150    0.39150    1.00320   1.00
O2       1.00320    0.43850    0.93850   1.00
O2       0.93850    0.50320    0.93850   1.00
O2       0.93850    0.43850    1.00320   1.00
C1       0.91500    0.41500    0.80980   1.00
C1       0.91500    0.30980    0.91500   1.00
C1       1.02020    0.41500    0.91500   1.00
C1       0.80980    0.41500    0.91500   1.00
C1       0.91500    0.52020    0.91500   1.00
C1       0.91500    0.41500    1.02020   1.00
O1       0.41500    0.91500    0.91500   1.00
Zn1      0.44780    0.88220    0.88220   1.00
Zn1      0.38220    0.94780    0.88220   1.00
Zn1      0.38220    0.88220    0.94780   1.00
Zn1      0.44780    0.94780    0.94780   1.00
O2       0.43850    0.89150    0.82680   1.00
O2       0.43850    0.82680    0.89150   1.00
O2       0.50320    0.89150    0.89150   1.00
O2       0.39150    0.93850    0.82680   1.00
O2       0.32680    0.93850    0.89150   1.00
O2       0.39150    1.00320    0.89150   1.00
O2       0.39150    0.82680    0.93850   1.00
O2       0.32680    0.89150    0.93850   1.00
O2       0.39150    0.89150    1.00320   1.00
O2       0.50320    0.93850    0.93850   1.00
O2       0.43850    1.00320    0.93850   1.00
O2       0.43850    0.93850    1.00320   1.00
C1       0.41500    0.91500    0.80980   1.00
C1       0.41500    0.80980    0.91500   1.00
C1       0.52020    0.91500    0.91500   1.00
C1       0.30980    0.91500    0.91500   1.00
C1       0.41500    1.02020    0.91500   1.00
C1       0.41500    0.91500    1.02020   1.00
C5       0.82721    0.85056    1.13218   1.00
H2       0.79993    0.85904    1.14745   1.00
H2       0.83319    0.87427    1.11090   1.00
C5       0.86072    0.84741    1.16194   1.00
C5       0.87768    0.88796    1.17123   1.00
H2       0.88434    0.82849    1.15015   1.00
O3       0.81271    0.71710    0.98000   1.00
C4       0.74958    0.74997    1.02100   1.00
C3c      0.76520    0.78121    1.04243   1.00
H1       0.77747    0.80599    1.02725   1.00
C3d      0.73323    0.71821    1.04135   1.00
C3       0.76579    0.78081    1.08354   1.00
O2       0.77714    0.81435    1.10248   1.00
C3       0.73445    0.71739    1.08227   1.00
H1       0.72281    0.69179    1.09657   1.00
C2       0.75052    0.74854    1.10439   1.00
C5       0.81116    0.67594    0.97879   1.00
H2       0.81251    0.66448    0.94838   1.00
H2       0.78387    0.66483    0.99266   1.00
C5       0.84628    0.66047    1.00129   1.00
H2       0.84553    0.67280    1.03137   1.00
H2       0.87335    0.67144    0.98698   1.00
C5       0.84609    0.61556    1.00262   1.00
H2       0.84656    0.60305    0.97268   1.00
H2       0.81974    0.60461    1.01811   1.00
C5       0.88243    0.60067    1.02445   1.00
C5       0.68075    0.69069    1.01105   1.00
C5       0.81755    0.81281    1.11070   1.00
H2       0.67724    0.71587    0.99088   1.00
H2       0.66184    0.69549    1.03712   1.00
H2       0.83456    0.81091    1.08300   1.00
H2       0.82562    0.78697    1.12895   1.00
H2       0.85024    0.83514    1.19030   1.00
H2       0.63293    0.67965    0.94247   1.00
H2       0.60614    0.67212    0.98763   1.00
C2       0.75091    0.74748    0.89605   1.00
C3       0.71995    0.76596    0.91597   1.00
O2       0.68565    0.77459    0.89674   1.00
C3       0.78198    0.73177    0.91826   1.00
H1       0.80660    0.71834    0.90385   1.00
C3a      0.72017    0.76744    0.95713   1.00
H1       0.69520    0.77970    0.97202   1.00
C3b      0.78151    0.73218    0.95922   1.00
C4       0.75042    0.75003    0.97900   1.00
O3       0.72018    0.68546    1.02167   1.00
C5       0.68435    0.81462    0.88720   1.00
H2       0.68615    0.83321    0.91391   1.00
C5       0.64552    0.82189    0.86674   1.00
H2       0.70877    0.82264    0.86726   1.00
H2       0.62226    0.82416    0.88932   1.00
H2       0.63873    0.79546    0.84907   1.00
C5       0.64597    0.85857    0.84082   1.00
H2       0.65579    0.88410    0.85824   1.00
C5       0.60498    0.86709    0.82453   1.00
H2       0.66565    0.85472    0.81507   1.00
C5       0.66748    0.65372    0.99017   1.00
H2       0.66457    0.62995    1.01215   1.00
H2       0.69092    0.64471    0.96952   1.00
C5       0.62888    0.65982    0.96800   1.00
C5       0.61389    0.62052    0.95225   1.00
H2       0.85783    0.90359    1.19286   1.00
C5       0.91862    0.88333    1.18912   1.00
H2       0.87977    0.90578    1.14323   1.00
C5       0.87765    0.55690    1.03337   1.00
H2       0.90938    0.60525    1.00551   1.00
H2       0.88591    0.61748    1.05293   1.00
C5       0.60474    0.90753    0.80497   1.00
H2       0.59692    0.84389    0.80211   1.00
H2       0.58287    0.86666    0.84937   1.00
H2       0.63841    0.60499    0.93602   1.00
H2       0.60366    0.60159    0.97761   1.00
C5       0.57958    0.62774    0.92417   1.00
H2       0.92203    0.85252    1.20116   1.00
H2       0.94162    0.88869    1.16571   1.00
H2       0.92252    0.90535    1.21374   1.00
H2       0.85038    0.54541    1.01820   1.00
H2       0.90429    0.54036    1.02229   1.00
H2       0.87475    0.55253    1.06621   1.00
H2       0.63347    0.91224    0.78889   1.00
H2       0.57953    0.90924    0.78336   1.00
H2       0.60106    0.93105    0.82819   1.00
H2       0.59106    0.63037    0.89307   1.00
H2       0.55822    0.60232    0.92598   1.00
H2       0.56404    0.65590    0.93266   1.00
C5       0.85056    1.13218    0.82721   1.00
H2       0.85904    1.14745    0.79993   1.00
H2       0.87427    1.11090    0.83319   1.00
C5       0.84741    1.16194    0.86072   1.00
C5       0.88796    1.17123    0.87768   1.00
H2       0.82849    1.15015    0.88434   1.00
O3       0.71710    0.98000    0.81271   1.00
C4       0.74997    1.02100    0.74958   1.00
C3c      0.78121    1.04243    0.76520   1.00
H1       0.80599    1.02725    0.77747   1.00
C3d      0.71821    1.04135    0.73323   1.00
C3       0.78081    1.08354    0.76579   1.00
O2       0.81435    1.10248    0.77714   1.00
C3       0.71739    1.08227    0.73445   1.00
H1       0.69179    1.09657    0.72281   1.00
C2       0.74854    1.10439    0.75052   1.00
C5       0.67594    0.97879    0.81116   1.00
H2       0.66448    0.94838    0.81251   1.00
H2       0.66483    0.99266    0.78387   1.00
C5       0.66047    1.00129    0.84628   1.00
H2       0.67280    1.03137    0.84553   1.00
H2       0.67144    0.98698    0.87335   1.00
C5       0.61556    1.00262    0.84609   1.00
H2       0.60305    0.97268    0.84656   1.00
H2       0.60461    1.01811    0.81974   1.00
C5       0.60067    1.02445    0.88243   1.00
C5       0.69069    1.01105    0.68075   1.00
C5       0.81281    1.11070    0.81755   1.00
H2       0.71587    0.99088    0.67724   1.00
H2       0.69549    1.03712    0.66184   1.00
H2       0.81091    1.08300    0.83456   1.00
H2       0.78697    1.12895    0.82562   1.00
H2       0.83514    1.19030    0.85024   1.00
H2       0.67965    0.94247    0.63293   1.00
H2       0.67212    0.98763    0.60614   1.00
C2       0.74748    0.89605    0.75091   1.00
C3       0.76596    0.91597    0.71995   1.00
O2       0.77459    0.89674    0.68565   1.00
C3       0.73177    0.91826    0.78198   1.00
H1       0.71834    0.90385    0.80660   1.00
C3a      0.76744    0.95713    0.72017   1.00
H1       0.77970    0.97202    0.69520   1.00
C3b      0.73218    0.95922    0.78151   1.00
C4       0.75003    0.97900    0.75042   1.00
O3       0.68546    1.02167    0.72018   1.00
C5       0.81462    0.88720    0.68435   1.00
H2       0.83321    0.91391    0.68615   1.00
C5       0.82189    0.86674    0.64552   1.00
H2       0.82264    0.86726    0.70877   1.00
H2       0.82416    0.88932    0.62226   1.00
H2       0.79546    0.84907    0.63873   1.00
C5       0.85857    0.84082    0.64597   1.00
H2       0.88410    0.85824    0.65579   1.00
C5       0.86709    0.82453    0.60498   1.00
H2       0.85472    0.81507    0.66565   1.00
C5       0.65372    0.99017    0.66748   1.00
H2       0.62995    1.01215    0.66457   1.00
H2       0.64471    0.96952    0.69092   1.00
C5       0.65982    0.96800    0.62888   1.00
C5       0.62052    0.95225    0.61389   1.00
H2       0.90359    1.19286    0.85783   1.00
C5       0.88333    1.18912    0.91862   1.00
H2       0.90578    1.14323    0.87977   1.00
C5       0.55690    1.03337    0.87765   1.00
H2       0.60525    1.00551    0.90938   1.00
H2       0.61748    1.05293    0.88591   1.00
C5       0.90753    0.80497    0.60474   1.00
H2       0.84389    0.80211    0.59692   1.00
H2       0.86666    0.84937    0.58287   1.00
H2       0.60499    0.93602    0.63841   1.00
H2       0.60159    0.97761    0.60366   1.00
C5       0.62774    0.92417    0.57958   1.00
H2       0.85252    1.20116    0.92203   1.00
H2       0.88869    1.16571    0.94162   1.00
H2       0.90535    1.21374    0.92252   1.00
H2       0.54541    1.01820    0.85038   1.00
H2       0.54036    1.02229    0.90429   1.00
H2       0.55253    1.06621    0.87475   1.00
H2       0.91224    0.78889    0.63347   1.00
H2       0.90924    0.78336    0.57953   1.00
H2       0.93105    0.82819    0.60106   1.00
H2       0.63037    0.89307    0.59106   1.00
H2       0.60232    0.92598    0.55822   1.00
H2       0.65590    0.93266    0.56404   1.00
C5       0.36782    0.82721    0.64944   1.00
H2       0.35255    0.79993    0.64096   1.00
H2       0.38910    0.83319    0.62573   1.00
C5       0.33806    0.86072    0.65259   1.00
C5       0.32877    0.87768    0.61204   1.00
H2       0.34985    0.88434    0.67151   1.00
O3       0.52000    0.81271    0.78290   1.00
C4       0.47900    0.74958    0.75003   1.00
C3c      0.45757    0.76520    0.71879   1.00
H1       0.47275    0.77747    0.69401   1.00
C3d      0.45865    0.73323    0.78179   1.00
C3       0.41646    0.76579    0.71919   1.00
O2       0.39752    0.77714    0.68565   1.00
C3       0.41773    0.73445    0.78261   1.00
H1       0.40343    0.72281    0.80821   1.00
C2       0.39561    0.75052    0.75146   1.00
C5       0.52121    0.81116    0.82406   1.00
H2       0.55162    0.81251    0.83552   1.00
H2       0.50734    0.78387    0.83517   1.00
C5       0.49871    0.84628    0.83953   1.00
H2       0.46863    0.84553    0.82720   1.00
H2       0.51302    0.87335    0.82856   1.00
C5       0.49738    0.84609    0.88444   1.00
H2       0.52732    0.84656    0.89695   1.00
H2       0.48189    0.81974    0.89539   1.00
C5       0.47555    0.88243    0.89933   1.00
C5       0.48895    0.68075    0.80931   1.00
C5       0.38930    0.81755    0.68719   1.00
H2       0.50912    0.67724    0.78413   1.00
H2       0.46288    0.66184    0.80451   1.00
H2       0.41700    0.83456    0.68909   1.00
H2       0.37105    0.82562    0.71303   1.00
H2       0.30970    0.85024    0.66486   1.00
H2       0.55753    0.63293    0.82035   1.00
H2       0.51237    0.60614    0.82788   1.00
C2       0.60395    0.75091    0.75252   1.00
C3       0.58403    0.71995    0.73404   1.00
O2       0.60326    0.68565    0.72541   1.00
C3       0.58174    0.78198    0.76823   1.00
H1       0.59615    0.80660    0.78166   1.00
C3a      0.54287    0.72017    0.73256   1.00
H1       0.52798    0.69520    0.72030   1.00
C3b      0.54078    0.78151    0.76782   1.00
C4       0.52100    0.75042    0.74997   1.00
O3       0.47833    0.72018    0.81454   1.00
C5       0.61280    0.68435    0.68538   1.00
H2       0.58609    0.68615    0.66679   1.00
C5       0.63326    0.64552    0.67811   1.00
H2       0.63274    0.70877    0.67736   1.00
H2       0.61068    0.62226    0.67584   1.00
H2       0.65093    0.63873    0.70454   1.00
C5       0.65918    0.64597    0.64143   1.00
H2       0.64176    0.65579    0.61590   1.00
C5       0.67547    0.60498    0.63291   1.00
H2       0.68493    0.66565    0.64528   1.00
C5       0.50983    0.66748    0.84628   1.00
H2       0.48785    0.66457    0.87005   1.00
H2       0.53048    0.69092    0.85529   1.00
C5       0.53200    0.62888    0.84018   1.00
C5       0.54775    0.61389    0.87948   1.00
H2       0.30714    0.85783    0.59641   1.00
C5       0.31088    0.91862    0.61667   1.00
H2       0.35677    0.87977    0.59422   1.00
C5       0.46663    0.87765    0.94310   1.00
H2       0.49449    0.90938    0.89475   1.00
H2       0.44707    0.88591    0.88252   1.00
C5       0.69503    0.60474    0.59247   1.00
H2       0.69789    0.59692    0.65611   1.00
H2       0.65063    0.58287    0.63334   1.00
H2       0.56398    0.63841    0.89501   1.00
H2       0.52239    0.60366    0.89841   1.00
C5       0.57583    0.57958    0.87226   1.00
H2       0.29884    0.92203    0.64748   1.00
H2       0.33429    0.94162    0.61131   1.00
H2       0.28626    0.92252    0.59465   1.00
H2       0.48180    0.85038    0.95459   1.00
H2       0.47771    0.90429    0.95964   1.00
H2       0.43379    0.87475    0.94747   1.00
H2       0.71111    0.63347    0.58776   1.00
H2       0.71664    0.57953    0.59076   1.00
H2       0.67181    0.60106    0.56895   1.00
H2       0.60693    0.59106    0.86963   1.00
H2       0.57402    0.55822    0.89768   1.00
H2       0.56734    0.56404    0.84410   1.00
C5       1.13218    0.82721    0.85056   1.00
H2       1.14745    0.79993    0.85904   1.00
H2       1.11090    0.83319    0.87427   1.00
C5       1.16194    0.86072    0.84741   1.00
C5       1.17123    0.87768    0.88796   1.00
H2       1.15015    0.88434    0.82849   1.00
O3       0.98000    0.81271    0.71710   1.00
C4       1.02100    0.74958    0.74997   1.00
C3c      1.04243    0.76520    0.78121   1.00
H1       1.02725    0.77747    0.80599   1.00
C3d      1.04135    0.73323    0.71821   1.00
C3       1.08354    0.76579    0.78081   1.00
O2       1.10248    0.77714    0.81435   1.00
C3       1.08227    0.73445    0.71739   1.00
H1       1.09657    0.72281    0.69179   1.00
C2       1.10439    0.75052    0.74854   1.00
C5       0.97879    0.81116    0.67594   1.00
H2       0.94838    0.81251    0.66448   1.00
H2       0.99266    0.78387    0.66483   1.00
C5       1.00129    0.84628    0.66047   1.00
H2       1.03137    0.84553    0.67280   1.00
H2       0.98698    0.87335    0.67144   1.00
C5       1.00262    0.84609    0.61556   1.00
H2       0.97268    0.84656    0.60305   1.00
H2       1.01811    0.81974    0.60461   1.00
C5       1.02445    0.88243    0.60067   1.00
C5       1.01105    0.68075    0.69069   1.00
C5       1.11070    0.81755    0.81281   1.00
H2       0.99088    0.67724    0.71587   1.00
H2       1.03712    0.66184    0.69549   1.00
H2       1.08300    0.83456    0.81091   1.00
H2       1.12895    0.82562    0.78697   1.00
H2       1.19030    0.85024    0.83514   1.00
H2       0.94247    0.63293    0.67965   1.00
H2       0.98763    0.60614    0.67212   1.00
C2       0.89605    0.75091    0.74748   1.00
C3       0.91597    0.71995    0.76596   1.00
O2       0.89674    0.68565    0.77459   1.00
C3       0.91826    0.78198    0.73177   1.00
H1       0.90385    0.80660    0.71834   1.00
C3a      0.95713    0.72017    0.76744   1.00
H1       0.97202    0.69520    0.77970   1.00
C3b      0.95922    0.78151    0.73218   1.00
C4       0.97900    0.75042    0.75003   1.00
O3       1.02167    0.72018    0.68546   1.00
C5       0.88720    0.68435    0.81462   1.00
H2       0.91391    0.68615    0.83321   1.00
C5       0.86674    0.64552    0.82189   1.00
H2       0.86726    0.70877    0.82264   1.00
H2       0.88932    0.62226    0.82416   1.00
H2       0.84907    0.63873    0.79546   1.00
C5       0.84082    0.64597    0.85857   1.00
H2       0.85824    0.65579    0.88410   1.00
C5       0.82453    0.60498    0.86709   1.00
H2       0.81507    0.66565    0.85472   1.00
C5       0.99017    0.66748    0.65372   1.00
H2       1.01215    0.66457    0.62995   1.00
H2       0.96952    0.69092    0.64471   1.00
C5       0.96800    0.62888    0.65982   1.00
C5       0.95225    0.61389    0.62052   1.00
H2       1.19286    0.85783    0.90359   1.00
C5       1.18912    0.91862    0.88333   1.00
H2       1.14323    0.87977    0.90578   1.00
C5       1.03337    0.87765    0.55690   1.00
H2       1.00551    0.90938    0.60525   1.00
H2       1.05293    0.88591    0.61748   1.00
C5       0.80497    0.60474    0.90753   1.00
H2       0.80211    0.59692    0.84389   1.00
H2       0.84937    0.58287    0.86666   1.00
H2       0.93602    0.63841    0.60499   1.00
H2       0.97761    0.60366    0.60159   1.00
C5       0.92417    0.57958    0.62774   1.00
H2       1.20116    0.92203    0.85252   1.00
H2       1.16571    0.94162    0.88869   1.00
H2       1.21374    0.92252    0.90535   1.00
H2       1.01820    0.85038    0.54541   1.00
H2       1.02229    0.90429    0.54036   1.00
H2       1.06621    0.87475    0.55253   1.00
H2       0.78889    0.63347    0.91224   1.00
H2       0.78336    0.57953    0.90924   1.00
H2       0.82819    0.60106    0.93105   1.00
H2       0.89307    0.59106    0.63037   1.00
H2       0.92598    0.55822    0.60232   1.00
H2       0.93266    0.56404    0.65590   1.00
C5       0.64944    0.36782    0.82721   1.00
H2       0.64096    0.35255    0.79993   1.00
H2       0.62573    0.38910    0.83319   1.00
C5       0.65259    0.33806    0.86072   1.00
C5       0.61204    0.32877    0.87768   1.00
H2       0.67151    0.34985    0.88434   1.00
O3       0.78290    0.52000    0.81271   1.00
C4       0.75003    0.47900    0.74958   1.00
C3c      0.71879    0.45757    0.76520   1.00
H1       0.69401    0.47275    0.77747   1.00
C3d      0.78179    0.45865    0.73323   1.00
C3       0.71919    0.41646    0.76579   1.00
O2       0.68565    0.39752    0.77714   1.00
C3       0.78261    0.41773    0.73445   1.00
H1       0.80821    0.40343    0.72281   1.00
C2       0.75146    0.39561    0.75052   1.00
C5       0.82406    0.52121    0.81116   1.00
H2       0.83552    0.55162    0.81251   1.00
H2       0.83517    0.50734    0.78387   1.00
C5       0.83953    0.49871    0.84628   1.00
H2       0.82720    0.46863    0.84553   1.00
H2       0.82856    0.51302    0.87335   1.00
C5       0.88444    0.49738    0.84609   1.00
H2       0.89695    0.52732    0.84656   1.00
H2       0.89539    0.48189    0.81974   1.00
C5       0.89933    0.47555    0.88243   1.00
C5       0.80931    0.48895    0.68075   1.00
C5       0.68719    0.38930    0.81755   1.00
H2       0.78413    0.50912    0.67724   1.00
H2       0.80451    0.46288    0.66184   1.00
H2       0.68909    0.41700    0.83456   1.00
H2       0.71303    0.37105    0.82562   1.00
H2       0.66486    0.30970    0.85024   1.00
H2       0.82035    0.55753    0.63293   1.00
H2       0.82788    0.51237    0.60614   1.00
C2       0.75252    0.60395    0.75091   1.00
C3       0.73404    0.58403    0.71995   1.00
O2       0.72541    0.60326    0.68565   1.00
C3       0.76823    0.58174    0.78198   1.00
H1       0.78166    0.59615    0.80660   1.00
C3a      0.73256    0.54287    0.72017   1.00
H1       0.72030    0.52798    0.69520   1.00
C3b      0.76782    0.54078    0.78151   1.00
C4       0.74997    0.52100    0.75042   1.00
O3       0.81454    0.47833    0.72018   1.00
C5       0.68538    0.61280    0.68435   1.00
H2       0.66679    0.58609    0.68615   1.00
C5       0.67811    0.63326    0.64552   1.00
H2       0.67736    0.63274    0.70877   1.00
H2       0.67584    0.61068    0.62226   1.00
H2       0.70454    0.65093    0.63873   1.00
C5       0.64143    0.65918    0.64597   1.00
H2       0.61590    0.64176    0.65579   1.00
C5       0.63291    0.67547    0.60498   1.00
H2       0.64528    0.68493    0.66565   1.00
C5       0.84628    0.50983    0.66748   1.00
H2       0.87005    0.48785    0.66457   1.00
H2       0.85529    0.53048    0.69092   1.00
C5       0.84018    0.53200    0.62888   1.00
C5       0.87948    0.54775    0.61389   1.00
H2       0.59641    0.30714    0.85783   1.00
C5       0.61667    0.31088    0.91862   1.00
H2       0.59422    0.35677    0.87977   1.00
C5       0.94310    0.46663    0.87765   1.00
H2       0.89475    0.49449    0.90938   1.00
H2       0.88252    0.44707    0.88591   1.00
C5       0.59247    0.69503    0.60474   1.00
H2       0.65611    0.69789    0.59692   1.00
H2       0.63334    0.65063    0.58287   1.00
H2       0.89501    0.56398    0.63841   1.00
H2       0.89841    0.52239    0.60366   1.00
C5       0.87226    0.57583    0.57958   1.00
H2       0.64748    0.29884    0.92203   1.00
H2       0.61131    0.33429    0.94162   1.00
H2       0.59465    0.28626    0.92252   1.00
H2       0.95459    0.48180    0.85038   1.00
H2       0.95964    0.47771    0.90429   1.00
H2       0.94747    0.43379    0.87475   1.00
H2       0.58776    0.71111    0.63347   1.00
H2       0.59076    0.71664    0.57953   1.00
H2       0.56895    0.67181    0.60106   1.00
H2       0.86963    0.60693    0.59106   1.00
H2       0.89768    0.57402    0.55822   1.00
H2       0.84410    0.56734    0.56404   1.00
C5       0.82721    0.64944    0.36782   1.00
H2       0.79993    0.64096    0.35255   1.00
H2       0.83319    0.62573    0.38910   1.00
C5       0.86072    0.65259    0.33806   1.00
C5       0.87768    0.61204    0.32877   1.00
H2       0.88434    0.67151    0.34985   1.00
O3       0.81271    0.78290    0.52000   1.00
C4       0.74958    0.75003    0.47900   1.00
C3c      0.76520    0.71879    0.45757   1.00
H1       0.77747    0.69401    0.47275   1.00
C3d      0.73323    0.78179    0.45865   1.00
C3       0.76579    0.71919    0.41646   1.00
O2       0.77714    0.68565    0.39752   1.00
C3       0.73445    0.78261    0.41773   1.00
H1       0.72281    0.80821    0.40343   1.00
C2       0.75052    0.75146    0.39561   1.00
C5       0.81116    0.82406    0.52121   1.00
H2       0.81251    0.83552    0.55162   1.00
H2       0.78387    0.83517    0.50734   1.00
C5       0.84628    0.83953    0.49871   1.00
H2       0.84553    0.82720    0.46863   1.00
H2       0.87335    0.82856    0.51302   1.00
C5       0.84609    0.88444    0.49738   1.00
H2       0.84656    0.89695    0.52732   1.00
H2       0.81974    0.89539    0.48189   1.00
C5       0.88243    0.89933    0.47555   1.00
C5       0.68075    0.80931    0.48895   1.00
C5       0.81755    0.68719    0.38930   1.00
H2       0.67724    0.78413    0.50912   1.00
H2       0.66184    0.80451    0.46288   1.00
H2       0.83456    0.68909    0.41700   1.00
H2       0.82562    0.71303    0.37105   1.00
H2       0.85024    0.66486    0.30970   1.00
H2       0.63293    0.82035    0.55753   1.00
H2       0.60614    0.82788    0.51237   1.00
C2       0.75091    0.75252    0.60395   1.00
C3       0.71995    0.73404    0.58403   1.00
O2       0.68565    0.72541    0.60326   1.00
C3       0.78198    0.76823    0.58174   1.00
H1       0.80660    0.78166    0.59615   1.00
C3a      0.72017    0.73256    0.54287   1.00
H1       0.69520    0.72030    0.52798   1.00
C3b      0.78151    0.76782    0.54078   1.00
C4       0.75042    0.74997    0.52100   1.00
O3       0.72018    0.81454    0.47833   1.00
C5       0.68435    0.68538    0.61280   1.00
H2       0.68615    0.66679    0.58609   1.00
C5       0.64552    0.67811    0.63326   1.00
H2       0.70877    0.67736    0.63274   1.00
H2       0.62226    0.67584    0.61068   1.00
H2       0.63873    0.70454    0.65093   1.00
C5       0.64597    0.64143    0.65918   1.00
H2       0.65579    0.61590    0.64176   1.00
C5       0.60498    0.63291    0.67547   1.00
H2       0.66565    0.64528    0.68493   1.00
C5       0.66748    0.84628    0.50983   1.00
H2       0.66457    0.87005    0.48785   1.00
H2       0.69092    0.85529    0.53048   1.00
C5       0.62888    0.84018    0.53200   1.00
C5       0.61389    0.87948    0.54775   1.00
H2       0.85783    0.59641    0.30714   1.00
C5       0.91862    0.61667    0.31088   1.00
H2       0.87977    0.59422    0.35677   1.00
C5       0.87765    0.94310    0.46663   1.00
H2       0.90938    0.89475    0.49449   1.00
H2       0.88591    0.88252    0.44707   1.00
C5       0.60474    0.59247    0.69503   1.00
H2       0.59692    0.65611    0.69789   1.00
H2       0.58287    0.63334    0.65063   1.00
H2       0.63841    0.89501    0.56398   1.00
H2       0.60366    0.89841    0.52239   1.00
C5       0.57958    0.87226    0.57583   1.00
H2       0.92203    0.64748    0.29884   1.00
H2       0.94162    0.61131    0.33429   1.00
H2       0.92252    0.59465    0.28626   1.00
H2       0.85038    0.95459    0.48180   1.00
H2       0.90429    0.95964    0.47771   1.00
H2       0.87475    0.94747    0.43379   1.00
H2       0.63347    0.58776    0.71111   1.00
H2       0.57953    0.59076    0.71664   1.00
H2       0.60106    0.56895    0.67181   1.00
H2       0.59106    0.86963    0.60693   1.00
H2       0.55822    0.89768    0.57402   1.00
H2       0.56404    0.84410    0.56734   1.00
C5       0.32721    0.35056    1.13218   1.00
H2       0.29993    0.35904    1.14745   1.00
H2       0.33319    0.37427    1.11090   1.00
C5       0.36072    0.34741    1.16194   1.00
C5       0.37768    0.38796    1.17123   1.00
H2       0.38434    0.32849    1.15015   1.00
O3       0.31271    0.21710    0.98000   1.00
C4       0.24958    0.24997    1.02100   1.00
C3c      0.26520    0.28121    1.04243   1.00
H1       0.27747    0.30599    1.02725   1.00
C3d      0.23323    0.21821    1.04135   1.00
C3       0.26579    0.28081    1.08354   1.00
O2       0.27714    0.31435    1.10248   1.00
C3       0.23445    0.21739    1.08227   1.00
H1       0.22281    0.19179    1.09657   1.00
C2       0.25052    0.24854    1.10439   1.00
C5       0.31116    0.17594    0.97879   1.00
H2       0.31251    0.16448    0.94838   1.00
H2       0.28387    0.16483    0.99266   1.00
C5       0.34628    0.16047    1.00129   1.00
H2       0.34553    0.17280    1.03137   1.00
H2       0.37335    0.17144    0.98698   1.00
C5       0.34609    0.11556    1.00262   1.00
H2       0.34656    0.10305    0.97268   1.00
H2       0.31974    0.10461    1.01811   1.00
C5       0.38243    0.10067    1.02445   1.00
C5       0.18075    0.19069    1.01105   1.00
C5       0.31755    0.31281    1.11070   1.00
H2       0.17724    0.21587    0.99088   1.00
H2       0.16184    0.19549    1.03712   1.00
H2       0.33456    0.31091    1.08300   1.00
H2       0.32562    0.28697    1.12895   1.00
H2       0.35024    0.33514    1.19030   1.00
H2       0.13293    0.17965    0.94247   1.00
H2       0.10614    0.17212    0.98763   1.00
C2       0.25091    0.24748    0.89605   1.00
C3       0.21995    0.26596    0.91597   1.00
O2       0.18565    0.27459    0.89674   1.00
C3       0.28198    0.23177    0.91826   1.00
H1       0.30660    0.21834    0.90385   1.00
C3a      0.22017    0.26744    0.95713   1.00
H1       0.19520    0.27970    0.97202   1.00
C3b      0.28151    0.23218    0.95922   1.00
C4       0.25042    0.25003    0.97900   1.00
O3       0.22018    0.18546    1.02167   1.00
C5       0.18435    0.31462    0.88720   1.00
H2       0.18615    0.33321    0.91391   1.00
C5       0.14552    0.32189    0.86674   1.00
H2       0.20877    0.32264    0.86726   1.00
H2       0.12226    0.32416    0.88932   1.00
H2       0.13873    0.29546    0.84907   1.00
C5       0.14597    0.35857    0.84082   1.00
H2       0.15579    0.38410    0.85824   1.00
C5       0.10498    0.36709    0.82453   1.00
H2       0.16565    0.35472    0.81507   1.00
C5       0.16748    0.15372    0.99017   1.00
H2       0.16457    0.12995    1.01215   1.00
H2       0.19092    0.14471    0.96952   1.00
C5       0.12888    0.15982    0.96800   1.00
C5       0.11389    0.12052    0.95225   1.00
H2       0.35783    0.40359    1.19286   1.00
C5       0.41862    0.38333    1.18912   1.00
H2       0.37977    0.40578    1.14323   1.00
C5       0.37765    0.05690    1.03337   1.00
H2       0.40938    0.10525    1.00551   1.00
H2       0.38591    0.11748    1.05293   1.00
C5       0.10474    0.40753    0.80497   1.00
H2       0.09692    0.34389    0.80211   1.00
H2       0.08287    0.36666    0.84937   1.00
H2       0.13841    0.10499    0.93602   1.00
H2       0.10366    0.10159    0.97761   1.00
C5       0.07958    0.12774    0.92417   1.00
H2       0.42203    0.35252    1.20116   1.00
H2       0.44162    0.38869    1.16571   1.00
H2       0.42252    0.40535    1.21374   1.00
H2       0.35038    0.04541    1.01820   1.00
H2       0.40429    0.04036    1.02229   1.00
H2       0.37475    0.05253    1.06621   1.00
H2       0.13347    0.41224    0.78889   1.00
H2       0.07953    0.40924    0.78336   1.00
H2       0.10106    0.43105    0.82819   1.00
H2       0.09106    0.13037    0.89307   1.00
H2       0.05822    0.10232    0.92598   1.00
H2       0.06404    0.15590    0.93266   1.00
C5       0.35056    0.63218    0.82721   1.00
H2       0.35904    0.64745    0.79993   1.00
H2       0.37427    0.61090    0.83319   1.00
C5       0.34741    0.66194    0.86072   1.00
C5       0.38796    0.67123    0.87768   1.00
H2       0.32849    0.65015    0.88434   1.00
O3       0.21710    0.48000    0.81271   1.00
C4       0.24997    0.52100    0.74958   1.00
C3c      0.28121    0.54243    0.76520   1.00
H1       0.30599    0.52725    0.77747   1.00
C3d      0.21821    0.54135    0.73323   1.00
C3       0.28081    0.58354    0.76579   1.00
O2       0.31435    0.60248    0.77714   1.00
C3       0.21739    0.58227    0.73445   1.00
H1       0.19179    0.59657    0.72281   1.00
C2       0.24854    0.60439    0.75052   1.00
C5       0.17594    0.47879    0.81116   1.00
H2       0.16448    0.44838    0.81251   1.00
H2       0.16483    0.49266    0.78387   1.00
C5       0.16047    0.50129    0.84628   1.00
H2       0.17280    0.53137    0.84553   1.00
H2       0.17144    0.48698    0.87335   1.00
C5       0.11556    0.50262    0.84609   1.00
H2       0.10305    0.47268    0.84656   1.00
H2       0.10461    0.51811    0.81974   1.00
C5       0.10067    0.52445    0.88243   1.00
C5       0.19069    0.51105    0.68075   1.00
C5       0.31281    0.61070    0.81755   1.00
H2       0.21587    0.49088    0.67724   1.00
H2       0.19549    0.53712    0.66184   1.00
H2       0.31091    0.58300    0.83456   1.00
H2       0.28697    0.62895    0.82562   1.00
H2       0.33514    0.69030    0.85024   1.00
H2       0.17965    0.44247    0.63293   1.00
H2       0.17212    0.48763    0.60614   1.00
C2       0.24748    0.39605    0.75091   1.00
C3       0.26596    0.41597    0.71995   1.00
O2       0.27459    0.39674    0.68565   1.00
C3       0.23177    0.41826    0.78198   1.00
H1       0.21834    0.40385    0.80660   1.00
C3a      0.26744    0.45713    0.72017   1.00
H1       0.27970    0.47202    0.69520   1.00
C3b      0.23218    0.45922    0.78151   1.00
C4       0.25003    0.47900    0.75042   1.00
O3       0.18546    0.52167    0.72018   1.00
C5       0.31462    0.38720    0.68435   1.00
H2       0.33321    0.41391    0.68615   1.00
C5       0.32189    0.36674    0.64552   1.00
H2       0.32264    0.36726    0.70877   1.00
H2       0.32416    0.38932    0.62226   1.00
H2       0.29546    0.34907    0.63873   1.00
C5       0.35857    0.34082    0.64597   1.00
H2       0.38410    0.35824    0.65579   1.00
C5       0.36709    0.32453    0.60498   1.00
H2       0.35472    0.31507    0.66565   1.00
C5       0.15372    0.49017    0.66748   1.00
H2       0.12995    0.51215    0.66457   1.00
H2       0.14471    0.46952    0.69092   1.00
C5       0.15982    0.46800    0.62888   1.00
C5       0.12052    0.45225    0.61389   1.00
H2       0.40359    0.69286    0.85783   1.00
C5       0.38333    0.68912    0.91862   1.00
H2       0.40578    0.64323    0.87977   1.00
C5       0.05690    0.53337    0.87765   1.00
H2       0.10525    0.50551    0.90938   1.00
H2       0.11748    0.55293    0.88591   1.00
C5       0.40753    0.30497    0.60474   1.00
H2       0.34389    0.30211    0.59692   1.00
H2       0.36666    0.34937    0.58287   1.00
H2       0.10499    0.43602    0.63841   1.00
H2       0.10159    0.47761    0.60366   1.00
C5       0.12774    0.42417    0.57958   1.00
H2       0.35252    0.70116    0.92203   1.00
H2       0.38869    0.66571    0.94162   1.00
H2       0.40535    0.71374    0.92252   1.00
H2       0.04541    0.51820    0.85038   1.00
H2       0.04036    0.52229    0.90429   1.00
H2       0.05253    0.56621    0.87475   1.00
H2       0.41224    0.28889    0.63347   1.00
H2       0.40924    0.28336    0.57953   1.00
H2       0.43105    0.32819    0.60106   1.00
H2       0.13037    0.39307    0.59106   1.00
H2       0.10232    0.42598    0.55822   1.00
H2       0.15590    0.43266    0.56404   1.00
C5       -0.13218   0.32721    0.64944   1.00
H2       -0.14745   0.29993    0.64096   1.00
H2       -0.11090   0.33319    0.62573   1.00
C5       -0.16194   0.36072    0.65259   1.00
C5       -0.17123   0.37768    0.61204   1.00
H2       -0.15015   0.38434    0.67151   1.00
O3       0.02000    0.31271    0.78290   1.00
C4       -0.02100   0.24958    0.75003   1.00
C3c      -0.04243   0.26520    0.71879   1.00
H1       -0.02725   0.27747    0.69401   1.00
C3d      -0.04135   0.23323    0.78179   1.00
C3       -0.08354   0.26579    0.71919   1.00
O2       -0.10248   0.27714    0.68565   1.00
C3       -0.08227   0.23445    0.78261   1.00
H1       -0.09657   0.22281    0.80821   1.00
C2       -0.10439   0.25052    0.75146   1.00
C5       0.02121    0.31116    0.82406   1.00
H2       0.05162    0.31251    0.83552   1.00
H2       0.00734    0.28387    0.83517   1.00
C5       -0.00129   0.34628    0.83953   1.00
H2       -0.03137   0.34553    0.82720   1.00
H2       0.01302    0.37335    0.82856   1.00
C5       -0.00262   0.34609    0.88444   1.00
H2       0.02732    0.34656    0.89695   1.00
H2       -0.01811   0.31974    0.89539   1.00
C5       -0.02445   0.38243    0.89933   1.00
C5       -0.01105   0.18075    0.80931   1.00
C5       -0.11070   0.31755    0.68719   1.00
H2       0.00912    0.17724    0.78413   1.00
H2       -0.03712   0.16184    0.80451   1.00
H2       -0.08300   0.33456    0.68909   1.00
H2       -0.12895   0.32562    0.71303   1.00
H2       -0.19030   0.35024    0.66486   1.00
H2       0.05753    0.13293    0.82035   1.00
H2       0.01237    0.10614    0.82788   1.00
C2       0.10395    0.25091    0.75252   1.00
C3       0.08403    0.21995    0.73404   1.00
O2       0.10326    0.18565    0.72541   1.00
C3       0.08174    0.28198    0.76823   1.00
H1       0.09615    0.30660    0.78166   1.00
C3a      0.04287    0.22017    0.73256   1.00
H1       0.02798    0.19520    0.72030   1.00
C3b      0.04078    0.28151    0.76782   1.00
C4       0.02100    0.25042    0.74997   1.00
O3       -0.02167   0.22018    0.81454   1.00
C5       0.11280    0.18435    0.68538   1.00
H2       0.08609    0.18615    0.66679   1.00
C5       0.13326    0.14552    0.67811   1.00
H2       0.13274    0.20877    0.67736   1.00
H2       0.11068    0.12226    0.67584   1.00
H2       0.15093    0.13873    0.70454   1.00
C5       0.15918    0.14597    0.64143   1.00
H2       0.14176    0.15579    0.61590   1.00
C5       0.17547    0.10498    0.63291   1.00
H2       0.18493    0.16565    0.64528   1.00
C5       0.00983    0.16748    0.84628   1.00
H2       -0.01215   0.16457    0.87005   1.00
H2       0.03048    0.19092    0.85529   1.00
C5       0.03200    0.12888    0.84018   1.00
C5       0.04775    0.11389    0.87948   1.00
H2       -0.19286   0.35783    0.59641   1.00
C5       -0.18912   0.41862    0.61667   1.00
H2       -0.14323   0.37977    0.59422   1.00
C5       -0.03337   0.37765    0.94310   1.00
H2       -0.00551   0.40938    0.89475   1.00
H2       -0.05293   0.38591    0.88252   1.00
C5       0.19503    0.10474    0.59247   1.00
H2       0.19789    0.09692    0.65611   1.00
H2       0.15063    0.08287    0.63334   1.00
H2       0.06398    0.13841    0.89501   1.00
H2       0.02239    0.10366    0.89841   1.00
C5       0.07583    0.07958    0.87226   1.00
H2       -0.20116   0.42203    0.64748   1.00
H2       -0.16571   0.44162    0.61131   1.00
H2       -0.21374   0.42252    0.59465   1.00
H2       -0.01820   0.35038    0.95459   1.00
H2       -0.02229   0.40429    0.95964   1.00
H2       -0.06621   0.37475    0.94747   1.00
H2       0.21111    0.13347    0.58776   1.00
H2       0.21664    0.07953    0.59076   1.00
H2       0.17181    0.10106    0.56895   1.00
H2       0.10693    0.09106    0.86963   1.00
H2       0.07402    0.05822    0.89768   1.00
H2       0.06734    0.06404    0.84410   1.00
C5       0.63218    0.32721    0.85056   1.00
H2       0.64745    0.29993    0.85904   1.00
H2       0.61090    0.33319    0.87427   1.00
C5       0.66194    0.36072    0.84741   1.00
C5       0.67123    0.37768    0.88796   1.00
H2       0.65015    0.38434    0.82849   1.00
O3       0.48000    0.31271    0.71710   1.00
C4       0.52100    0.24958    0.74997   1.00
C3c      0.54243    0.26520    0.78121   1.00
H1       0.52725    0.27747    0.80599   1.00
C3d      0.54135    0.23323    0.71821   1.00
C3       0.58354    0.26579    0.78081   1.00
O2       0.60248    0.27714    0.81435   1.00
C3       0.58227    0.23445    0.71739   1.00
H1       0.59657    0.22281    0.69179   1.00
C2       0.60439    0.25052    0.74854   1.00
C5       0.47879    0.31116    0.67594   1.00
H2       0.44838    0.31251    0.66448   1.00
H2       0.49266    0.28387    0.66483   1.00
C5       0.50129    0.34628    0.66047   1.00
H2       0.53137    0.34553    0.67280   1.00
H2       0.48698    0.37335    0.67144   1.00
C5       0.50262    0.34609    0.61556   1.00
H2       0.47268    0.34656    0.60305   1.00
H2       0.51811    0.31974    0.60461   1.00
C5       0.52445    0.38243    0.60067   1.00
C5       0.51105    0.18075    0.69069   1.00
C5       0.61070    0.31755    0.81281   1.00
H2       0.49088    0.17724    0.71587   1.00
H2       0.53712    0.16184    0.69549   1.00
H2       0.58300    0.33456    0.81091   1.00
H2       0.62895    0.32562    0.78697   1.00
H2       0.69030    0.35024    0.83514   1.00
H2       0.44247    0.13293    0.67965   1.00
H2       0.48763    0.10614    0.67212   1.00
C2       0.39605    0.25091    0.74748   1.00
C3       0.41597    0.21995    0.76596   1.00
O2       0.39674    0.18565    0.77459   1.00
C3       0.41826    0.28198    0.73177   1.00
H1       0.40385    0.30660    0.71834   1.00
C3a      0.45713    0.22017    0.76744   1.00
H1       0.47202    0.19520    0.77970   1.00
C3b      0.45922    0.28151    0.73218   1.00
C4       0.47900    0.25042    0.75003   1.00
O3       0.52167    0.22018    0.68546   1.00
C5       0.38720    0.18435    0.81462   1.00
H2       0.41391    0.18615    0.83321   1.00
C5       0.36674    0.14552    0.82189   1.00
H2       0.36726    0.20877    0.82264   1.00
H2       0.38932    0.12226    0.82416   1.00
H2       0.34907    0.13873    0.79546   1.00
C5       0.34082    0.14597    0.85857   1.00
H2       0.35824    0.15579    0.88410   1.00
C5       0.32453    0.10498    0.86709   1.00
H2       0.31507    0.16565    0.85472   1.00
C5       0.49017    0.16748    0.65372   1.00
H2       0.51215    0.16457    0.62995   1.00
H2       0.46952    0.19092    0.64471   1.00
C5       0.46800    0.12888    0.65982   1.00
C5       0.45225    0.11389    0.62052   1.00
H2       0.69286    0.35783    0.90359   1.00
C5       0.68912    0.41862    0.88333   1.00
H2       0.64323    0.37977    0.90578   1.00
C5       0.53337    0.37765    0.55690   1.00
H2       0.50551    0.40938    0.60525   1.00
H2       0.55293    0.38591    0.61748   1.00
C5       0.30497    0.10474    0.90753   1.00
H2       0.30211    0.09692    0.84389   1.00
H2       0.34937    0.08287    0.86666   1.00
H2       0.43602    0.13841    0.60499   1.00
H2       0.47761    0.10366    0.60159   1.00
C5       0.42417    0.07958    0.62774   1.00
H2       0.70116    0.42203    0.85252   1.00
H2       0.66571    0.44162    0.88869   1.00
H2       0.71374    0.42252    0.90535   1.00
H2       0.51820    0.35038    0.54541   1.00
H2       0.52229    0.40429    0.54036   1.00
H2       0.56621    0.37475    0.55253   1.00
H2       0.28889    0.13347    0.91224   1.00
H2       0.28336    0.07953    0.90924   1.00
H2       0.32819    0.10106    0.93105   1.00
H2       0.39307    0.09106    0.63037   1.00
H2       0.42598    0.05822    0.60232   1.00
H2       0.43266    0.06404    0.65590   1.00
C5       0.14944    -0.13218   0.82721   1.00
H2       0.14096    -0.14745   0.79993   1.00
H2       0.12573    -0.11090   0.83319   1.00
C5       0.15259    -0.16194   0.86072   1.00
C5       0.11204    -0.17123   0.87768   1.00
H2       0.17151    -0.15015   0.88434   1.00
O3       0.28290    0.02000    0.81271   1.00
C4       0.25003    -0.02100   0.74958   1.00
C3c      0.21879    -0.04243   0.76520   1.00
H1       0.19401    -0.02725   0.77747   1.00
C3d      0.28179    -0.04135   0.73323   1.00
C3       0.21919    -0.08354   0.76579   1.00
O2       0.18565    -0.10248   0.77714   1.00
C3       0.28261    -0.08227   0.73445   1.00
H1       0.30821    -0.09657   0.72281   1.00
C2       0.25146    -0.10439   0.75052   1.00
C5       0.32406    0.02121    0.81116   1.00
H2       0.33552    0.05162    0.81251   1.00
H2       0.33517    0.00734    0.78387   1.00
C5       0.33953    -0.00129   0.84628   1.00
H2       0.32720    -0.03137   0.84553   1.00
H2       0.32856    0.01302    0.87335   1.00
C5       0.38444    -0.00262   0.84609   1.00
H2       0.39695    0.02732    0.84656   1.00
H2       0.39539    -0.01811   0.81974   1.00
C5       0.39933    -0.02445   0.88243   1.00
C5       0.30931    -0.01105   0.68075   1.00
C5       0.18719    -0.11070   0.81755   1.00
H2       0.28413    0.00912    0.67724   1.00
H2       0.30451    -0.03712   0.66184   1.00
H2       0.18909    -0.08300   0.83456   1.00
H2       0.21303    -0.12895   0.82562   1.00
H2       0.16486    -0.19030   0.85024   1.00
H2       0.32035    0.05753    0.63293   1.00
H2       0.32788    0.01237    0.60614   1.00
C2       0.25252    0.10395    0.75091   1.00
C3       0.23404    0.08403    0.71995   1.00
O2       0.22541    0.10326    0.68565   1.00
C3       0.26823    0.08174    0.78198   1.00
H1       0.28166    0.09615    0.80660   1.00
C3a      0.23256    0.04287    0.72017   1.00
H1       0.22030    0.02798    0.69520   1.00
C3b      0.26782    0.04078    0.78151   1.00
C4       0.24997    0.02100    0.75042   1.00
O3       0.31454    -0.02167   0.72018   1.00
C5       0.18538    0.11280    0.68435   1.00
H2       0.16679    0.08609    0.68615   1.00
C5       0.17811    0.13326    0.64552   1.00
H2       0.17736    0.13274    0.70877   1.00
H2       0.17584    0.11068    0.62226   1.00
H2       0.20454    0.15093    0.63873   1.00
C5       0.14143    0.15918    0.64597   1.00
H2       0.11590    0.14176    0.65579   1.00
C5       0.13291    0.17547    0.60498   1.00
H2       0.14528    0.18493    0.66565   1.00
C5       0.34628    0.00983    0.66748   1.00
H2       0.37005    -0.01215   0.66457   1.00
H2       0.35529    0.03048    0.69092   1.00
C5       0.34018    0.03200    0.62888   1.00
C5       0.37948    0.04775    0.61389   1.00
H2       0.09641    -0.19286   0.85783   1.00
C5       0.11667    -0.18912   0.91862   1.00
H2       0.09422    -0.14323   0.87977   1.00
C5       0.44310    -0.03337   0.87765   1.00
H2       0.39475    -0.00551   0.90938   1.00
H2       0.38252    -0.05293   0.88591   1.00
C5       0.09247    0.19503    0.60474   1.00
H2       0.15611    0.19789    0.59692   1.00
H2       0.13334    0.15063    0.58287   1.00
H2       0.39501    0.06398    0.63841   1.00
H2       0.39841    0.02239    0.60366   1.00
C5       0.37226    0.07583    0.57958   1.00
H2       0.14748    -0.20116   0.92203   1.00
H2       0.11131    -0.16571   0.94162   1.00
H2       0.09465    -0.21374   0.92252   1.00
H2       0.45459    -0.01820   0.85038   1.00
H2       0.45964    -0.02229   0.90429   1.00
H2       0.44747    -0.06621   0.87475   1.00
H2       0.08776    0.21111    0.63347   1.00
H2       0.09076    0.21664    0.57953   1.00
H2       0.06895    0.17181    0.60106   1.00
H2       0.36963    0.10693    0.59106   1.00
H2       0.39768    0.07402    0.55822   1.00
H2       0.34410    0.06734    0.56404   1.00
C5       0.32721    0.14944    0.36782   1.00
H2       0.29993    0.14096    0.35255   1.00
H2       0.33319    0.12573    0.38910   1.00
C5       0.36072    0.15259    0.33806   1.00
C5       0.37768    0.11204    0.32877   1.00
H2       0.38434    0.17151    0.34985   1.00
O3       0.31271    0.28290    0.52000   1.00
C4       0.24958    0.25003    0.47900   1.00
C3c      0.26520    0.21879    0.45757   1.00
H1       0.27747    0.19401    0.47275   1.00
C3d      0.23323    0.28179    0.45865   1.00
C3       0.26579    0.21919    0.41646   1.00
O2       0.27714    0.18565    0.39752   1.00
C3       0.23445    0.28261    0.41773   1.00
H1       0.22281    0.30821    0.40343   1.00
C2       0.25052    0.25146    0.39561   1.00
C5       0.31116    0.32406    0.52121   1.00
H2       0.31251    0.33552    0.55162   1.00
H2       0.28387    0.33517    0.50734   1.00
C5       0.34628    0.33953    0.49871   1.00
H2       0.34553    0.32720    0.46863   1.00
H2       0.37335    0.32856    0.51302   1.00
C5       0.34609    0.38444    0.49738   1.00
H2       0.34656    0.39695    0.52732   1.00
H2       0.31974    0.39539    0.48189   1.00
C5       0.38243    0.39933    0.47555   1.00
C5       0.18075    0.30931    0.48895   1.00
C5       0.31755    0.18719    0.38930   1.00
H2       0.17724    0.28413    0.50912   1.00
H2       0.16184    0.30451    0.46288   1.00
H2       0.33456    0.18909    0.41700   1.00
H2       0.32562    0.21303    0.37105   1.00
H2       0.35024    0.16486    0.30970   1.00
H2       0.13293    0.32035    0.55753   1.00
H2       0.10614    0.32788    0.51237   1.00
C2       0.25091    0.25252    0.60395   1.00
C3       0.21995    0.23404    0.58403   1.00
O2       0.18565    0.22541    0.60326   1.00
C3       0.28198    0.26823    0.58174   1.00
H1       0.30660    0.28166    0.59615   1.00
C3a      0.22017    0.23256    0.54287   1.00
H1       0.19520    0.22030    0.52798   1.00
C3b      0.28151    0.26782    0.54078   1.00
C4       0.25042    0.24997    0.52100   1.00
O3       0.22018    0.31454    0.47833   1.00
C5       0.18435    0.18538    0.61280   1.00
H2       0.18615    0.16679    0.58609   1.00
C5       0.14552    0.17811    0.63326   1.00
H2       0.20877    0.17736    0.63274   1.00
H2       0.12226    0.17584    0.61068   1.00
H2       0.13873    0.20454    0.65093   1.00
C5       0.14597    0.14143    0.65918   1.00
H2       0.15579    0.11590    0.64176   1.00
C5       0.10498    0.13291    0.67547   1.00
H2       0.16565    0.14528    0.68493   1.00
C5       0.16748    0.34628    0.50983   1.00
H2       0.16457    0.37005    0.48785   1.00
H2       0.19092    0.35529    0.53048   1.00
C5       0.12888    0.34018    0.53200   1.00
C5       0.11389    0.37948    0.54775   1.00
H2       0.35783    0.09641    0.30714   1.00
C5       0.41862    0.11667    0.31088   1.00
H2       0.37977    0.09422    0.35677   1.00
C5       0.37765    0.44310    0.46663   1.00
H2       0.40938    0.39475    0.49449   1.00
H2       0.38591    0.38252    0.44707   1.00
C5       0.10474    0.09247    0.69503   1.00
H2       0.09692    0.15611    0.69789   1.00
H2       0.08287    0.13334    0.65063   1.00
H2       0.13841    0.39501    0.56398   1.00
H2       0.10366    0.39841    0.52239   1.00
C5       0.07958    0.37226    0.57583   1.00
H2       0.42203    0.14748    0.29884   1.00
H2       0.44162    0.11131    0.33429   1.00
H2       0.42252    0.09465    0.28626   1.00
H2       0.35038    0.45459    0.48180   1.00
H2       0.40429    0.45964    0.47771   1.00
H2       0.37475    0.44747    0.43379   1.00
H2       0.13347    0.08776    0.71111   1.00
H2       0.07953    0.09076    0.71664   1.00
H2       0.10106    0.06895    0.67181   1.00
H2       0.09106    0.36963    0.60693   1.00
H2       0.05822    0.39768    0.57402   1.00
H2       0.06404    0.34410    0.56734   1.00
C5       0.32721    0.85056    0.63218   1.00
H2       0.29993    0.85904    0.64745   1.00
H2       0.33319    0.87427    0.61090   1.00
C5       0.36072    0.84741    0.66194   1.00
C5       0.37768    0.88796    0.67123   1.00
H2       0.38434    0.82849    0.65015   1.00
O3       0.31271    0.71710    0.48000   1.00
C4       0.24958    0.74997    0.52100   1.00
C3c      0.26520    0.78121    0.54243   1.00
H1       0.27747    0.80599    0.52725   1.00
C3d      0.23323    0.71821    0.54135   1.00
C3       0.26579    0.78081    0.58354   1.00
O2       0.27714    0.81435    0.60248   1.00
C3       0.23445    0.71739    0.58227   1.00
H1       0.22281    0.69179    0.59657   1.00
C2       0.25052    0.74854    0.60439   1.00
C5       0.31116    0.67594    0.47879   1.00
H2       0.31251    0.66448    0.44838   1.00
H2       0.28387    0.66483    0.49266   1.00
C5       0.34628    0.66047    0.50129   1.00
H2       0.34553    0.67280    0.53137   1.00
H2       0.37335    0.67144    0.48698   1.00
C5       0.34609    0.61556    0.50262   1.00
H2       0.34656    0.60305    0.47268   1.00
H2       0.31974    0.60461    0.51811   1.00
C5       0.38243    0.60067    0.52445   1.00
C5       0.18075    0.69069    0.51105   1.00
C5       0.31755    0.81281    0.61070   1.00
H2       0.17724    0.71587    0.49088   1.00
H2       0.16184    0.69549    0.53712   1.00
H2       0.33456    0.81091    0.58300   1.00
H2       0.32562    0.78697    0.62895   1.00
H2       0.35024    0.83514    0.69030   1.00
H2       0.13293    0.67965    0.44247   1.00
H2       0.10614    0.67212    0.48763   1.00
C2       0.25091    0.74748    0.39605   1.00
C3       0.21995    0.76596    0.41597   1.00
O2       0.18565    0.77459    0.39674   1.00
C3       0.28198    0.73177    0.41826   1.00
H1       0.30660    0.71834    0.40385   1.00
C3a      0.22017    0.76744    0.45713   1.00
H1       0.19520    0.77970    0.47202   1.00
C3b      0.28151    0.73218    0.45922   1.00
C4       0.25042    0.75003    0.47900   1.00
O3       0.22018    0.68546    0.52167   1.00
C5       0.18435    0.81462    0.38720   1.00
H2       0.18615    0.83321    0.41391   1.00
C5       0.14552    0.82189    0.36674   1.00
H2       0.20877    0.82264    0.36726   1.00
H2       0.12226    0.82416    0.38932   1.00
H2       0.13873    0.79546    0.34907   1.00
C5       0.14597    0.85857    0.34082   1.00
H2       0.15579    0.88410    0.35824   1.00
C5       0.10498    0.86709    0.32453   1.00
H2       0.16565    0.85472    0.31507   1.00
C5       0.16748    0.65372    0.49017   1.00
H2       0.16457    0.62995    0.51215   1.00
H2       0.19092    0.64471    0.46952   1.00
C5       0.12888    0.65982    0.46800   1.00
C5       0.11389    0.62052    0.45225   1.00
H2       0.35783    0.90359    0.69286   1.00
C5       0.41862    0.88333    0.68912   1.00
H2       0.37977    0.90578    0.64323   1.00
C5       0.37765    0.55690    0.53337   1.00
H2       0.40938    0.60525    0.50551   1.00
H2       0.38591    0.61748    0.55293   1.00
C5       0.10474    0.90753    0.30497   1.00
H2       0.09692    0.84389    0.30211   1.00
H2       0.08287    0.86666    0.34937   1.00
H2       0.13841    0.60499    0.43602   1.00
H2       0.10366    0.60159    0.47761   1.00
C5       0.07958    0.62774    0.42417   1.00
H2       0.42203    0.85252    0.70116   1.00
H2       0.44162    0.88869    0.66571   1.00
H2       0.42252    0.90535    0.71374   1.00
H2       0.35038    0.54541    0.51820   1.00
H2       0.40429    0.54036    0.52229   1.00
H2       0.37475    0.55253    0.56621   1.00
H2       0.13347    0.91224    0.28889   1.00
H2       0.07953    0.90924    0.28336   1.00
H2       0.10106    0.93105    0.32819   1.00
H2       0.09106    0.63037    0.39307   1.00
H2       0.05822    0.60232    0.42598   1.00
H2       0.06404    0.65590    0.43266   1.00
C5       0.35056    1.13218    0.32721   1.00
H2       0.35904    1.14745    0.29993   1.00
H2       0.37427    1.11090    0.33319   1.00
C5       0.34741    1.16194    0.36072   1.00
C5       0.38796    1.17123    0.37768   1.00
H2       0.32849    1.15015    0.38434   1.00
O3       0.21710    0.98000    0.31271   1.00
C4       0.24997    1.02100    0.24958   1.00
C3c      0.28121    1.04243    0.26520   1.00
H1       0.30599    1.02725    0.27747   1.00
C3d      0.21821    1.04135    0.23323   1.00
C3       0.28081    1.08354    0.26579   1.00
O2       0.31435    1.10248    0.27714   1.00
C3       0.21739    1.08227    0.23445   1.00
H1       0.19179    1.09657    0.22281   1.00
C2       0.24854    1.10439    0.25052   1.00
C5       0.17594    0.97879    0.31116   1.00
H2       0.16448    0.94838    0.31251   1.00
H2       0.16483    0.99266    0.28387   1.00
C5       0.16047    1.00129    0.34628   1.00
H2       0.17280    1.03137    0.34553   1.00
H2       0.17144    0.98698    0.37335   1.00
C5       0.11556    1.00262    0.34609   1.00
H2       0.10305    0.97268    0.34656   1.00
H2       0.10461    1.01811    0.31974   1.00
C5       0.10067    1.02445    0.38243   1.00
C5       0.19069    1.01105    0.18075   1.00
C5       0.31281    1.11070    0.31755   1.00
H2       0.21587    0.99088    0.17724   1.00
H2       0.19549    1.03712    0.16184   1.00
H2       0.31091    1.08300    0.33456   1.00
H2       0.28697    1.12895    0.32562   1.00
H2       0.33514    1.19030    0.35024   1.00
H2       0.17965    0.94247    0.13293   1.00
H2       0.17212    0.98763    0.10614   1.00
C2       0.24748    0.89605    0.25091   1.00
C3       0.26596    0.91597    0.21995   1.00
O2       0.27459    0.89674    0.18565   1.00
C3       0.23177    0.91826    0.28198   1.00
H1       0.21834    0.90385    0.30660   1.00
C3a      0.26744    0.95713    0.22017   1.00
H1       0.27970    0.97202    0.19520   1.00
C3b      0.23218    0.95922    0.28151   1.00
C4       0.25003    0.97900    0.25042   1.00
O3       0.18546    1.02167    0.22018   1.00
C5       0.31462    0.88720    0.18435   1.00
H2       0.33321    0.91391    0.18615   1.00
C5       0.32189    0.86674    0.14552   1.00
H2       0.32264    0.86726    0.20877   1.00
H2       0.32416    0.88932    0.12226   1.00
H2       0.29546    0.84907    0.13873   1.00
C5       0.35857    0.84082    0.14597   1.00
H2       0.38410    0.85824    0.15579   1.00
C5       0.36709    0.82453    0.10498   1.00
H2       0.35472    0.81507    0.16565   1.00
C5       0.15372    0.99017    0.16748   1.00
H2       0.12995    1.01215    0.16457   1.00
H2       0.14471    0.96952    0.19092   1.00
C5       0.15982    0.96800    0.12888   1.00
C5       0.12052    0.95225    0.11389   1.00
H2       0.40359    1.19286    0.35783   1.00
C5       0.38333    1.18912    0.41862   1.00
H2       0.40578    1.14323    0.37977   1.00
C5       0.05690    1.03337    0.37765   1.00
H2       0.10525    1.00551    0.40938   1.00
H2       0.11748    1.05293    0.38591   1.00
C5       0.40753    0.80497    0.10474   1.00
H2       0.34389    0.80211    0.09692   1.00
H2       0.36666    0.84937    0.08287   1.00
H2       0.10499    0.93602    0.13841   1.00
H2       0.10159    0.97761    0.10366   1.00
C5       0.12774    0.92417    0.07958   1.00
H2       0.35252    1.20116    0.42203   1.00
H2       0.38869    1.16571    0.44162   1.00
H2       0.40535    1.21374    0.42252   1.00
H2       0.04541    1.01820    0.35038   1.00
H2       0.04036    1.02229    0.40429   1.00
H2       0.05253    1.06621    0.37475   1.00
H2       0.41224    0.78889    0.13347   1.00
H2       0.40924    0.78336    0.07953   1.00
H2       0.43105    0.82819    0.10106   1.00
H2       0.13037    0.89307    0.09106   1.00
H2       0.10232    0.92598    0.05822   1.00
H2       0.15590    0.93266    0.06404   1.00
C5       -0.13218   0.82721    0.14944   1.00
H2       -0.14745   0.79993    0.14096   1.00
H2       -0.11090   0.83319    0.12573   1.00
C5       -0.16194   0.86072    0.15259   1.00
C5       -0.17123   0.87768    0.11204   1.00
H2       -0.15015   0.88434    0.17151   1.00
O3       0.02000    0.81271    0.28290   1.00
C4       -0.02100   0.74958    0.25003   1.00
C3c      -0.04243   0.76520    0.21879   1.00
H1       -0.02725   0.77747    0.19401   1.00
C3d      -0.04135   0.73323    0.28179   1.00
C3       -0.08354   0.76579    0.21919   1.00
O2       -0.10248   0.77714    0.18565   1.00
C3       -0.08227   0.73445    0.28261   1.00
H1       -0.09657   0.72281    0.30821   1.00
C2       -0.10439   0.75052    0.25146   1.00
C5       0.02121    0.81116    0.32406   1.00
H2       0.05162    0.81251    0.33552   1.00
H2       0.00734    0.78387    0.33517   1.00
C5       -0.00129   0.84628    0.33953   1.00
H2       -0.03137   0.84553    0.32720   1.00
H2       0.01302    0.87335    0.32856   1.00
C5       -0.00262   0.84609    0.38444   1.00
H2       0.02732    0.84656    0.39695   1.00
H2       -0.01811   0.81974    0.39539   1.00
C5       -0.02445   0.88243    0.39933   1.00
C5       -0.01105   0.68075    0.30931   1.00
C5       -0.11070   0.81755    0.18719   1.00
H2       0.00912    0.67724    0.28413   1.00
H2       -0.03712   0.66184    0.30451   1.00
H2       -0.08300   0.83456    0.18909   1.00
H2       -0.12895   0.82562    0.21303   1.00
H2       -0.19030   0.85024    0.16486   1.00
H2       0.05753    0.63293    0.32035   1.00
H2       0.01237    0.60614    0.32788   1.00
C2       0.10395    0.75091    0.25252   1.00
C3       0.08403    0.71995    0.23404   1.00
O2       0.10326    0.68565    0.22541   1.00
C3       0.08174    0.78198    0.26823   1.00
H1       0.09615    0.80660    0.28166   1.00
C3a      0.04287    0.72017    0.23256   1.00
H1       0.02798    0.69520    0.22030   1.00
C3b      0.04078    0.78151    0.26782   1.00
C4       0.02100    0.75042    0.24997   1.00
O3       -0.02167   0.72018    0.31454   1.00
C5       0.11280    0.68435    0.18538   1.00
H2       0.08609    0.68615    0.16679   1.00
C5       0.13326    0.64552    0.17811   1.00
H2       0.13274    0.70877    0.17736   1.00
H2       0.11068    0.62226    0.17584   1.00
H2       0.15093    0.63873    0.20454   1.00
C5       0.15918    0.64597    0.14143   1.00
H2       0.14176    0.65579    0.11590   1.00
C5       0.17547    0.60498    0.13291   1.00
H2       0.18493    0.66565    0.14528   1.00
C5       0.00983    0.66748    0.34628   1.00
H2       -0.01215   0.66457    0.37005   1.00
H2       0.03048    0.69092    0.35529   1.00
C5       0.03200    0.62888    0.34018   1.00
C5       0.04775    0.61389    0.37948   1.00
H2       -0.19286   0.85783    0.09641   1.00
C5       -0.18912   0.91862    0.11667   1.00
H2       -0.14323   0.87977    0.09422   1.00
C5       -0.03337   0.87765    0.44310   1.00
H2       -0.00551   0.90938    0.39475   1.00
H2       -0.05293   0.88591    0.38252   1.00
C5       0.19503    0.60474    0.09247   1.00
H2       0.19789    0.59692    0.15611   1.00
H2       0.15063    0.58287    0.13334   1.00
H2       0.06398    0.63841    0.39501   1.00
H2       0.02239    0.60366    0.39841   1.00
C5       0.07583    0.57958    0.37226   1.00
H2       -0.20116   0.92203    0.14748   1.00
H2       -0.16571   0.94162    0.11131   1.00
H2       -0.21374   0.92252    0.09465   1.00
H2       -0.01820   0.85038    0.45459   1.00
H2       -0.02229   0.90429    0.45964   1.00
H2       -0.06621   0.87475    0.44747   1.00
H2       0.21111    0.63347    0.08776   1.00
H2       0.21664    0.57953    0.09076   1.00
H2       0.17181    0.60106    0.06895   1.00
H2       0.10693    0.59106    0.36963   1.00
H2       0.07402    0.55822    0.39768   1.00
H2       0.06734    0.56404    0.34410   1.00
C5       0.63218    0.82721    0.35056   1.00
H2       0.64745    0.79993    0.35904   1.00
H2       0.61090    0.83319    0.37427   1.00
C5       0.66194    0.86072    0.34741   1.00
C5       0.67123    0.87768    0.38796   1.00
H2       0.65015    0.88434    0.32849   1.00
O3       0.48000    0.81271    0.21710   1.00
C4       0.52100    0.74958    0.24997   1.00
C3c      0.54243    0.76520    0.28121   1.00
H1       0.52725    0.77747    0.30599   1.00
C3d      0.54135    0.73323    0.21821   1.00
C3       0.58354    0.76579    0.28081   1.00
O2       0.60248    0.77714    0.31435   1.00
C3       0.58227    0.73445    0.21739   1.00
H1       0.59657    0.72281    0.19179   1.00
C2       0.60439    0.75052    0.24854   1.00
C5       0.47879    0.81116    0.17594   1.00
H2       0.44838    0.81251    0.16448   1.00
H2       0.49266    0.78387    0.16483   1.00
C5       0.50129    0.84628    0.16047   1.00
H2       0.53137    0.84553    0.17280   1.00
H2       0.48698    0.87335    0.17144   1.00
C5       0.50262    0.84609    0.11556   1.00
H2       0.47268    0.84656    0.10305   1.00
H2       0.51811    0.81974    0.10461   1.00
C5       0.52445    0.88243    0.10067   1.00
C5       0.51105    0.68075    0.19069   1.00
C5       0.61070    0.81755    0.31281   1.00
H2       0.49088    0.67724    0.21587   1.00
H2       0.53712    0.66184    0.19549   1.00
H2       0.58300    0.83456    0.31091   1.00
H2       0.62895    0.82562    0.28697   1.00
H2       0.69030    0.85024    0.33514   1.00
H2       0.44247    0.63293    0.17965   1.00
H2       0.48763    0.60614    0.17212   1.00
C2       0.39605    0.75091    0.24748   1.00
C3       0.41597    0.71995    0.26596   1.00
O2       0.39674    0.68565    0.27459   1.00
C3       0.41826    0.78198    0.23177   1.00
H1       0.40385    0.80660    0.21834   1.00
C3a      0.45713    0.72017    0.26744   1.00
H1       0.47202    0.69520    0.27970   1.00
C3b      0.45922    0.78151    0.23218   1.00
C4       0.47900    0.75042    0.25003   1.00
O3       0.52167    0.72018    0.18546   1.00
C5       0.38720    0.68435    0.31462   1.00
H2       0.41391    0.68615    0.33321   1.00
C5       0.36674    0.64552    0.32189   1.00
H2       0.36726    0.70877    0.32264   1.00
H2       0.38932    0.62226    0.32416   1.00
H2       0.34907    0.63873    0.29546   1.00
C5       0.34082    0.64597    0.35857   1.00
H2       0.35824    0.65579    0.38410   1.00
C5       0.32453    0.60498    0.36709   1.00
H2       0.31507    0.66565    0.35472   1.00
C5       0.49017    0.66748    0.15372   1.00
H2       0.51215    0.66457    0.12995   1.00
H2       0.46952    0.69092    0.14471   1.00
C5       0.46800    0.62888    0.15982   1.00
C5       0.45225    0.61389    0.12052   1.00
H2       0.69286    0.85783    0.40359   1.00
C5       0.68912    0.91862    0.38333   1.00
H2       0.64323    0.87977    0.40578   1.00
C5       0.53337    0.87765    0.05690   1.00
H2       0.50551    0.90938    0.10525   1.00
H2       0.55293    0.88591    0.11748   1.00
C5       0.30497    0.60474    0.40753   1.00
H2       0.30211    0.59692    0.34389   1.00
H2       0.34937    0.58287    0.36666   1.00
H2       0.43602    0.63841    0.10499   1.00
H2       0.47761    0.60366    0.10159   1.00
C5       0.42417    0.57958    0.12774   1.00
H2       0.70116    0.92203    0.35252   1.00
H2       0.66571    0.94162    0.38869   1.00
H2       0.71374    0.92252    0.40535   1.00
H2       0.51820    0.85038    0.04541   1.00
H2       0.52229    0.90429    0.04036   1.00
H2       0.56621    0.87475    0.05253   1.00
H2       0.28889    0.63347    0.41224   1.00
H2       0.28336    0.57953    0.40924   1.00
H2       0.32819    0.60106    0.43105   1.00
H2       0.39307    0.59106    0.13037   1.00
H2       0.42598    0.55822    0.10232   1.00
H2       0.43266    0.56404    0.15590   1.00
C5       0.14944    0.36782    0.32721   1.00
H2       0.14096    0.35255    0.29993   1.00
H2       0.12573    0.38910    0.33319   1.00
C5       0.15259    0.33806    0.36072   1.00
C5       0.11204    0.32877    0.37768   1.00
H2       0.17151    0.34985    0.38434   1.00
O3       0.28290    0.52000    0.31271   1.00
C4       0.25003    0.47900    0.24958   1.00
C3c      0.21879    0.45757    0.26520   1.00
H1       0.19401    0.47275    0.27747   1.00
C3d      0.28179    0.45865    0.23323   1.00
C3       0.21919    0.41646    0.26579   1.00
O2       0.18565    0.39752    0.27714   1.00
C3       0.28261    0.41773    0.23445   1.00
H1       0.30821    0.40343    0.22281   1.00
C2       0.25146    0.39561    0.25052   1.00
C5       0.32406    0.52121    0.31116   1.00
H2       0.33552    0.55162    0.31251   1.00
H2       0.33517    0.50734    0.28387   1.00
C5       0.33953    0.49871    0.34628   1.00
H2       0.32720    0.46863    0.34553   1.00
H2       0.32856    0.51302    0.37335   1.00
C5       0.38444    0.49738    0.34609   1.00
H2       0.39695    0.52732    0.34656   1.00
H2       0.39539    0.48189    0.31974   1.00
C5       0.39933    0.47555    0.38243   1.00
C5       0.30931    0.48895    0.18075   1.00
C5       0.18719    0.38930    0.31755   1.00
H2       0.28413    0.50912    0.17724   1.00
H2       0.30451    0.46288    0.16184   1.00
H2       0.18909    0.41700    0.33456   1.00
H2       0.21303    0.37105    0.32562   1.00
H2       0.16486    0.30970    0.35024   1.00
H2       0.32035    0.55753    0.13293   1.00
H2       0.32788    0.51237    0.10614   1.00
C2       0.25252    0.60395    0.25091   1.00
C3       0.23404    0.58403    0.21995   1.00
O2       0.22541    0.60326    0.18565   1.00
C3       0.26823    0.58174    0.28198   1.00
H1       0.28166    0.59615    0.30660   1.00
C3a      0.23256    0.54287    0.22017   1.00
H1       0.22030    0.52798    0.19520   1.00
C3b      0.26782    0.54078    0.28151   1.00
C4       0.24997    0.52100    0.25042   1.00
O3       0.31454    0.47833    0.22018   1.00
C5       0.18538    0.61280    0.18435   1.00
H2       0.16679    0.58609    0.18615   1.00
C5       0.17811    0.63326    0.14552   1.00
H2       0.17736    0.63274    0.20877   1.00
H2       0.17584    0.61068    0.12226   1.00
H2       0.20454    0.65093    0.13873   1.00
C5       0.14143    0.65918    0.14597   1.00
H2       0.11590    0.64176    0.15579   1.00
C5       0.13291    0.67547    0.10498   1.00
H2       0.14528    0.68493    0.16565   1.00
C5       0.34628    0.50983    0.16748   1.00
H2       0.37005    0.48785    0.16457   1.00
H2       0.35529    0.53048    0.19092   1.00
C5       0.34018    0.53200    0.12888   1.00
C5       0.37948    0.54775    0.11389   1.00
H2       0.09641    0.30714    0.35783   1.00
C5       0.11667    0.31088    0.41862   1.00
H2       0.09422    0.35677    0.37977   1.00
C5       0.44310    0.46663    0.37765   1.00
H2       0.39475    0.49449    0.40938   1.00
H2       0.38252    0.44707    0.38591   1.00
C5       0.09247    0.69503    0.10474   1.00
H2       0.15611    0.69789    0.09692   1.00
H2       0.13334    0.65063    0.08287   1.00
H2       0.39501    0.56398    0.13841   1.00
H2       0.39841    0.52239    0.10366   1.00
C5       0.37226    0.57583    0.07958   1.00
H2       0.14748    0.29884    0.42203   1.00
H2       0.11131    0.33429    0.44162   1.00
H2       0.09465    0.28626    0.42252   1.00
H2       0.45459    0.48180    0.35038   1.00
H2       0.45964    0.47771    0.40429   1.00
H2       0.44747    0.43379    0.37475   1.00
H2       0.08776    0.71111    0.13347   1.00
H2       0.09076    0.71664    0.07953   1.00
H2       0.06895    0.67181    0.10106   1.00
H2       0.36963    0.60693    0.09106   1.00
H2       0.39768    0.57402    0.05822   1.00
H2       0.34410    0.56734    0.06404   1.00
C5       0.32721    0.64944    -0.13218   1.00
H2       0.29993    0.64096    -0.14745   1.00
H2       0.33319    0.62573    -0.11090   1.00
C5       0.36072    0.65259    -0.16194   1.00
C5       0.37768    0.61204    -0.17123   1.00
H2       0.38434    0.67151    -0.15015   1.00
O3       0.31271    0.78290    0.02000   1.00
C4       0.24958    0.75003    -0.02100   1.00
C3c      0.26520    0.71879    -0.04243   1.00
H1       0.27747    0.69401    -0.02725   1.00
C3d      0.23323    0.78179    -0.04135   1.00
C3       0.26579    0.71919    -0.08354   1.00
O2       0.27714    0.68565    -0.10248   1.00
C3       0.23445    0.78261    -0.08227   1.00
H1       0.22281    0.80821    -0.09657   1.00
C2       0.25052    0.75146    -0.10439   1.00
C5       0.31116    0.82406    0.02121   1.00
H2       0.31251    0.83552    0.05162   1.00
H2       0.28387    0.83517    0.00734   1.00
C5       0.34628    0.83953    -0.00129   1.00
H2       0.34553    0.82720    -0.03137   1.00
H2       0.37335    0.82856    0.01302   1.00
C5       0.34609    0.88444    -0.00262   1.00
H2       0.34656    0.89695    0.02732   1.00
H2       0.31974    0.89539    -0.01811   1.00
C5       0.38243    0.89933    -0.02445   1.00
C5       0.18075    0.80931    -0.01105   1.00
C5       0.31755    0.68719    -0.11070   1.00
H2       0.17724    0.78413    0.00912   1.00
H2       0.16184    0.80451    -0.03712   1.00
H2       0.33456    0.68909    -0.08300   1.00
H2       0.32562    0.71303    -0.12895   1.00
H2       0.35024    0.66486    -0.19030   1.00
H2       0.13293    0.82035    0.05753   1.00
H2       0.10614    0.82788    0.01237   1.00
C2       0.25091    0.75252    0.10395   1.00
C3       0.21995    0.73404    0.08403   1.00
O2       0.18565    0.72541    0.10326   1.00
C3       0.28198    0.76823    0.08174   1.00
H1       0.30660    0.78166    0.09615   1.00
C3a      0.22017    0.73256    0.04287   1.00
H1       0.19520    0.72030    0.02798   1.00
C3b      0.28151    0.76782    0.04078   1.00
C4       0.25042    0.74997    0.02100   1.00
O3       0.22018    0.81454    -0.02167   1.00
C5       0.18435    0.68538    0.11280   1.00
H2       0.18615    0.66679    0.08609   1.00
C5       0.14552    0.67811    0.13326   1.00
H2       0.20877    0.67736    0.13274   1.00
H2       0.12226    0.67584    0.11068   1.00
H2       0.13873    0.70454    0.15093   1.00
C5       0.14597    0.64143    0.15918   1.00
H2       0.15579    0.61590    0.14176   1.00
C5       0.10498    0.63291    0.17547   1.00
H2       0.16565    0.64528    0.18493   1.00
C5       0.16748    0.84628    0.00983   1.00
H2       0.16457    0.87005    -0.01215   1.00
H2       0.19092    0.85529    0.03048   1.00
C5       0.12888    0.84018    0.03200   1.00
C5       0.11389    0.87948    0.04775   1.00
H2       0.35783    0.59641    -0.19286   1.00
C5       0.41862    0.61667    -0.18912   1.00
H2       0.37977    0.59422    -0.14323   1.00
C5       0.37765    0.94310    -0.03337   1.00
H2       0.40938    0.89475    -0.00551   1.00
H2       0.38591    0.88252    -0.05293   1.00
C5       0.10474    0.59247    0.19503   1.00
H2       0.09692    0.65611    0.19789   1.00
H2       0.08287    0.63334    0.15063   1.00
H2       0.13841    0.89501    0.06398   1.00
H2       0.10366    0.89841    0.02239   1.00
C5       0.07958    0.87226    0.07583   1.00
H2       0.42203    0.64748    -0.20116   1.00
H2       0.44162    0.61131    -0.16571   1.00
H2       0.42252    0.59465    -0.21374   1.00
H2       0.35038    0.95459    -0.01820   1.00
H2       0.40429    0.95964    -0.02229   1.00
H2       0.37475    0.94747    -0.06621   1.00
H2       0.13347    0.58776    0.21111   1.00
H2       0.07953    0.59076    0.21664   1.00
H2       0.10106    0.56895    0.17181   1.00
H2       0.09106    0.86963    0.10693   1.00
H2       0.05822    0.89768    0.07402   1.00
H2       0.06404    0.84410    0.06734   1.00
C5       0.82721    0.35056    0.63218   1.00
H2       0.79993    0.35904    0.64745   1.00
H2       0.83319    0.37427    0.61090   1.00
C5       0.86072    0.34741    0.66194   1.00
C5       0.87768    0.38796    0.67123   1.00
H2       0.88434    0.32849    0.65015   1.00
O3       0.81271    0.21710    0.48000   1.00
C4       0.74958    0.24997    0.52100   1.00
C3c      0.76520    0.28121    0.54243   1.00
H1       0.77747    0.30599    0.52725   1.00
C3d      0.73323    0.21821    0.54135   1.00
C3       0.76579    0.28081    0.58354   1.00
O2       0.77714    0.31435    0.60248   1.00
C3       0.73445    0.21739    0.58227   1.00
H1       0.72281    0.19179    0.59657   1.00
C2       0.75052    0.24854    0.60439   1.00
C5       0.81116    0.17594    0.47879   1.00
H2       0.81251    0.16448    0.44838   1.00
H2       0.78387    0.16483    0.49266   1.00
C5       0.84628    0.16047    0.50129   1.00
H2       0.84553    0.17280    0.53137   1.00
H2       0.87335    0.17144    0.48698   1.00
C5       0.84609    0.11556    0.50262   1.00
H2       0.84656    0.10305    0.47268   1.00
H2       0.81974    0.10461    0.51811   1.00
C5       0.88243    0.10067    0.52445   1.00
C5       0.68075    0.19069    0.51105   1.00
C5       0.81755    0.31281    0.61070   1.00
H2       0.67724    0.21587    0.49088   1.00
H2       0.66184    0.19549    0.53712   1.00
H2       0.83456    0.31091    0.58300   1.00
H2       0.82562    0.28697    0.62895   1.00
H2       0.85024    0.33514    0.69030   1.00
H2       0.63293    0.17965    0.44247   1.00
H2       0.60614    0.17212    0.48763   1.00
C2       0.75091    0.24748    0.39605   1.00
C3       0.71995    0.26596    0.41597   1.00
O2       0.68565    0.27459    0.39674   1.00
C3       0.78198    0.23177    0.41826   1.00
H1       0.80660    0.21834    0.40385   1.00
C3a      0.72017    0.26744    0.45713   1.00
H1       0.69520    0.27970    0.47202   1.00
C3b      0.78151    0.23218    0.45922   1.00
C4       0.75042    0.25003    0.47900   1.00
O3       0.72018    0.18546    0.52167   1.00
C5       0.68435    0.31462    0.38720   1.00
H2       0.68615    0.33321    0.41391   1.00
C5       0.64552    0.32189    0.36674   1.00
H2       0.70877    0.32264    0.36726   1.00
H2       0.62226    0.32416    0.38932   1.00
H2       0.63873    0.29546    0.34907   1.00
C5       0.64597    0.35857    0.34082   1.00
H2       0.65579    0.38410    0.35824   1.00
C5       0.60498    0.36709    0.32453   1.00
H2       0.66565    0.35472    0.31507   1.00
C5       0.66748    0.15372    0.49017   1.00
H2       0.66457    0.12995    0.51215   1.00
H2       0.69092    0.14471    0.46952   1.00
C5       0.62888    0.15982    0.46800   1.00
C5       0.61389    0.12052    0.45225   1.00
H2       0.85783    0.40359    0.69286   1.00
C5       0.91862    0.38333    0.68912   1.00
H2       0.87977    0.40578    0.64323   1.00
C5       0.87765    0.05690    0.53337   1.00
H2       0.90938    0.10525    0.50551   1.00
H2       0.88591    0.11748    0.55293   1.00
C5       0.60474    0.40753    0.30497   1.00
H2       0.59692    0.34389    0.30211   1.00
H2       0.58287    0.36666    0.34937   1.00
H2       0.63841    0.10499    0.43602   1.00
H2       0.60366    0.10159    0.47761   1.00
C5       0.57958    0.12774    0.42417   1.00
H2       0.92203    0.35252    0.70116   1.00
H2       0.94162    0.38869    0.66571   1.00
H2       0.92252    0.40535    0.71374   1.00
H2       0.85038    0.04541    0.51820   1.00
H2       0.90429    0.04036    0.52229   1.00
H2       0.87475    0.05253    0.56621   1.00
H2       0.63347    0.41224    0.28889   1.00
H2       0.57953    0.40924    0.28336   1.00
H2       0.60106    0.43105    0.32819   1.00
H2       0.59106    0.13037    0.39307   1.00
H2       0.55822    0.10232    0.42598   1.00
H2       0.56404    0.15590    0.43266   1.00
C5       0.85056    0.63218    0.32721   1.00
H2       0.85904    0.64745    0.29993   1.00
H2       0.87427    0.61090    0.33319   1.00
C5       0.84741    0.66194    0.36072   1.00
C5       0.88796    0.67123    0.37768   1.00
H2       0.82849    0.65015    0.38434   1.00
O3       0.71710    0.48000    0.31271   1.00
C4       0.74997    0.52100    0.24958   1.00
C3c      0.78121    0.54243    0.26520   1.00
H1       0.80599    0.52725    0.27747   1.00
C3d      0.71821    0.54135    0.23323   1.00
C3       0.78081    0.58354    0.26579   1.00
O2       0.81435    0.60248    0.27714   1.00
C3       0.71739    0.58227    0.23445   1.00
H1       0.69179    0.59657    0.22281   1.00
C2       0.74854    0.60439    0.25052   1.00
C5       0.67594    0.47879    0.31116   1.00
H2       0.66448    0.44838    0.31251   1.00
H2       0.66483    0.49266    0.28387   1.00
C5       0.66047    0.50129    0.34628   1.00
H2       0.67280    0.53137    0.34553   1.00
H2       0.67144    0.48698    0.37335   1.00
C5       0.61556    0.50262    0.34609   1.00
H2       0.60305    0.47268    0.34656   1.00
H2       0.60461    0.51811    0.31974   1.00
C5       0.60067    0.52445    0.38243   1.00
C5       0.69069    0.51105    0.18075   1.00
C5       0.81281    0.61070    0.31755   1.00
H2       0.71587    0.49088    0.17724   1.00
H2       0.69549    0.53712    0.16184   1.00
H2       0.81091    0.58300    0.33456   1.00
H2       0.78697    0.62895    0.32562   1.00
H2       0.83514    0.69030    0.35024   1.00
H2       0.67965    0.44247    0.13293   1.00
H2       0.67212    0.48763    0.10614   1.00
C2       0.74748    0.39605    0.25091   1.00
C3       0.76596    0.41597    0.21995   1.00
O2       0.77459    0.39674    0.18565   1.00
C3       0.73177    0.41826    0.28198   1.00
H1       0.71834    0.40385    0.30660   1.00
C3a      0.76744    0.45713    0.22017   1.00
H1       0.77970    0.47202    0.19520   1.00
C3b      0.73218    0.45922    0.28151   1.00
C4       0.75003    0.47900    0.25042   1.00
O3       0.68546    0.52167    0.22018   1.00
C5       0.81462    0.38720    0.18435   1.00
H2       0.83321    0.41391    0.18615   1.00
C5       0.82189    0.36674    0.14552   1.00
H2       0.82264    0.36726    0.20877   1.00
H2       0.82416    0.38932    0.12226   1.00
H2       0.79546    0.34907    0.13873   1.00
C5       0.85857    0.34082    0.14597   1.00
H2       0.88410    0.35824    0.15579   1.00
C5       0.86709    0.32453    0.10498   1.00
H2       0.85472    0.31507    0.16565   1.00
C5       0.65372    0.49017    0.16748   1.00
H2       0.62995    0.51215    0.16457   1.00
H2       0.64471    0.46952    0.19092   1.00
C5       0.65982    0.46800    0.12888   1.00
C5       0.62052    0.45225    0.11389   1.00
H2       0.90359    0.69286    0.35783   1.00
C5       0.88333    0.68912    0.41862   1.00
H2       0.90578    0.64323    0.37977   1.00
C5       0.55690    0.53337    0.37765   1.00
H2       0.60525    0.50551    0.40938   1.00
H2       0.61748    0.55293    0.38591   1.00
C5       0.90753    0.30497    0.10474   1.00
H2       0.84389    0.30211    0.09692   1.00
H2       0.86666    0.34937    0.08287   1.00
H2       0.60499    0.43602    0.13841   1.00
H2       0.60159    0.47761    0.10366   1.00
C5       0.62774    0.42417    0.07958   1.00
H2       0.85252    0.70116    0.42203   1.00
H2       0.88869    0.66571    0.44162   1.00
H2       0.90535    0.71374    0.42252   1.00
H2       0.54541    0.51820    0.35038   1.00
H2       0.54036    0.52229    0.40429   1.00
H2       0.55253    0.56621    0.37475   1.00
H2       0.91224    0.28889    0.13347   1.00
H2       0.90924    0.28336    0.07953   1.00
H2       0.93105    0.32819    0.10106   1.00
H2       0.63037    0.39307    0.09106   1.00
H2       0.60232    0.42598    0.05822   1.00
H2       0.65590    0.43266    0.06404   1.00
C5       0.36782    0.32721    0.14944   1.00
H2       0.35255    0.29993    0.14096   1.00
H2       0.38910    0.33319    0.12573   1.00
C5       0.33806    0.36072    0.15259   1.00
C5       0.32877    0.37768    0.11204   1.00
H2       0.34985    0.38434    0.17151   1.00
O3       0.52000    0.31271    0.28290   1.00
C4       0.47900    0.24958    0.25003   1.00
C3c      0.45757    0.26520    0.21879   1.00
H1       0.47275    0.27747    0.19401   1.00
C3d      0.45865    0.23323    0.28179   1.00
C3       0.41646    0.26579    0.21919   1.00
O2       0.39752    0.27714    0.18565   1.00
C3       0.41773    0.23445    0.28261   1.00
H1       0.40343    0.22281    0.30821   1.00
C2       0.39561    0.25052    0.25146   1.00
C5       0.52121    0.31116    0.32406   1.00
H2       0.55162    0.31251    0.33552   1.00
H2       0.50734    0.28387    0.33517   1.00
C5       0.49871    0.34628    0.33953   1.00
H2       0.46863    0.34553    0.32720   1.00
H2       0.51302    0.37335    0.32856   1.00
C5       0.49738    0.34609    0.38444   1.00
H2       0.52732    0.34656    0.39695   1.00
H2       0.48189    0.31974    0.39539   1.00
C5       0.47555    0.38243    0.39933   1.00
C5       0.48895    0.18075    0.30931   1.00
C5       0.38930    0.31755    0.18719   1.00
H2       0.50912    0.17724    0.28413   1.00
H2       0.46288    0.16184    0.30451   1.00
H2       0.41700    0.33456    0.18909   1.00
H2       0.37105    0.32562    0.21303   1.00
H2       0.30970    0.35024    0.16486   1.00
H2       0.55753    0.13293    0.32035   1.00
H2       0.51237    0.10614    0.32788   1.00
C2       0.60395    0.25091    0.25252   1.00
C3       0.58403    0.21995    0.23404   1.00
O2       0.60326    0.18565    0.22541   1.00
C3       0.58174    0.28198    0.26823   1.00
H1       0.59615    0.30660    0.28166   1.00
C3a      0.54287    0.22017    0.23256   1.00
H1       0.52798    0.19520    0.22030   1.00
C3b      0.54078    0.28151    0.26782   1.00
C4       0.52100    0.25042    0.24997   1.00
O3       0.47833    0.22018    0.31454   1.00
C5       0.61280    0.18435    0.18538   1.00
H2       0.58609    0.18615    0.16679   1.00
C5       0.63326    0.14552    0.17811   1.00
H2       0.63274    0.20877    0.17736   1.00
H2       0.61068    0.12226    0.17584   1.00
H2       0.65093    0.13873    0.20454   1.00
C5       0.65918    0.14597    0.14143   1.00
H2       0.64176    0.15579    0.11590   1.00
C5       0.67547    0.10498    0.13291   1.00
H2       0.68493    0.16565    0.14528   1.00
C5       0.50983    0.16748    0.34628   1.00
H2       0.48785    0.16457    0.37005   1.00
H2       0.53048    0.19092    0.35529   1.00
C5       0.53200    0.12888    0.34018   1.00
C5       0.54775    0.11389    0.37948   1.00
H2       0.30714    0.35783    0.09641   1.00
C5       0.31088    0.41862    0.11667   1.00
H2       0.35677    0.37977    0.09422   1.00
C5       0.46663    0.37765    0.44310   1.00
H2       0.49449    0.40938    0.39475   1.00
H2       0.44707    0.38591    0.38252   1.00
C5       0.69503    0.10474    0.09247   1.00
H2       0.69789    0.09692    0.15611   1.00
H2       0.65063    0.08287    0.13334   1.00
H2       0.56398    0.13841    0.39501   1.00
H2       0.52239    0.10366    0.39841   1.00
C5       0.57583    0.07958    0.37226   1.00
H2       0.29884    0.42203    0.14748   1.00
H2       0.33429    0.44162    0.11131   1.00
H2       0.28626    0.42252    0.09465   1.00
H2       0.48180    0.35038    0.45459   1.00
H2       0.47771    0.40429    0.45964   1.00
H2       0.43379    0.37475    0.44747   1.00
H2       0.71111    0.13347    0.08776   1.00
H2       0.71664    0.07953    0.09076   1.00
H2       0.67181    0.10106    0.06895   1.00
H2       0.60693    0.09106    0.36963   1.00
H2       0.57402    0.05822    0.39768   1.00
H2       0.56734    0.06404    0.34410   1.00
C5       1.13218    0.32721    0.35056   1.00
H2       1.14745    0.29993    0.35904   1.00
H2       1.11090    0.33319    0.37427   1.00
C5       1.16194    0.36072    0.34741   1.00
C5       1.17123    0.37768    0.38796   1.00
H2       1.15015    0.38434    0.32849   1.00
O3       0.98000    0.31271    0.21710   1.00
C4       1.02100    0.24958    0.24997   1.00
C3c      1.04243    0.26520    0.28121   1.00
H1       1.02725    0.27747    0.30599   1.00
C3d      1.04135    0.23323    0.21821   1.00
C3       1.08354    0.26579    0.28081   1.00
O2       1.10248    0.27714    0.31435   1.00
C3       1.08227    0.23445    0.21739   1.00
H1       1.09657    0.22281    0.19179   1.00
C2       1.10439    0.25052    0.24854   1.00
C5       0.97879    0.31116    0.17594   1.00
H2       0.94838    0.31251    0.16448   1.00
H2       0.99266    0.28387    0.16483   1.00
C5       1.00129    0.34628    0.16047   1.00
H2       1.03137    0.34553    0.17280   1.00
H2       0.98698    0.37335    0.17144   1.00
C5       1.00262    0.34609    0.11556   1.00
H2       0.97268    0.34656    0.10305   1.00
H2       1.01811    0.31974    0.10461   1.00
C5       1.02445    0.38243    0.10067   1.00
C5       1.01105    0.18075    0.19069   1.00
C5       1.11070    0.31755    0.31281   1.00
H2       0.99088    0.17724    0.21587   1.00
H2       1.03712    0.16184    0.19549   1.00
H2       1.08300    0.33456    0.31091   1.00
H2       1.12895    0.32562    0.28697   1.00
H2       1.19030    0.35024    0.33514   1.00
H2       0.94247    0.13293    0.17965   1.00
H2       0.98763    0.10614    0.17212   1.00
C2       0.89605    0.25091    0.24748   1.00
C3       0.91597    0.21995    0.26596   1.00
O2       0.89674    0.18565    0.27459   1.00
C3       0.91826    0.28198    0.23177   1.00
H1       0.90385    0.30660    0.21834   1.00
C3a      0.95713    0.22017    0.26744   1.00
H1       0.97202    0.19520    0.27970   1.00
C3b      0.95922    0.28151    0.23218   1.00
C4       0.97900    0.25042    0.25003   1.00
O3       1.02167    0.22018    0.18546   1.00
C5       0.88720    0.18435    0.31462   1.00
H2       0.91391    0.18615    0.33321   1.00
C5       0.86674    0.14552    0.32189   1.00
H2       0.86726    0.20877    0.32264   1.00
H2       0.88932    0.12226    0.32416   1.00
H2       0.84907    0.13873    0.29546   1.00
C5       0.84082    0.14597    0.35857   1.00
H2       0.85824    0.15579    0.38410   1.00
C5       0.82453    0.10498    0.36709   1.00
H2       0.81507    0.16565    0.35472   1.00
C5       0.99017    0.16748    0.15372   1.00
H2       1.01215    0.16457    0.12995   1.00
H2       0.96952    0.19092    0.14471   1.00
C5       0.96800    0.12888    0.15982   1.00
C5       0.95225    0.11389    0.12052   1.00
H2       1.19286    0.35783    0.40359   1.00
C5       1.18912    0.41862    0.38333   1.00
H2       1.14323    0.37977    0.40578   1.00
C5       1.03337    0.37765    0.05690   1.00
H2       1.00551    0.40938    0.10525   1.00
H2       1.05293    0.38591    0.11748   1.00
C5       0.80497    0.10474    0.40753   1.00
H2       0.80211    0.09692    0.34389   1.00
H2       0.84937    0.08287    0.36666   1.00
H2       0.93602    0.13841    0.10499   1.00
H2       0.97761    0.10366    0.10159   1.00
C5       0.92417    0.07958    0.12774   1.00
H2       1.20116    0.42203    0.35252   1.00
H2       1.16571    0.44162    0.38869   1.00
H2       1.21374    0.42252    0.40535   1.00
H2       1.01820    0.35038    0.04541   1.00
H2       1.02229    0.40429    0.04036   1.00
H2       1.06621    0.37475    0.05253   1.00
H2       0.78889    0.13347    0.41224   1.00
H2       0.78336    0.07953    0.40924   1.00
H2       0.82819    0.10106    0.43105   1.00
H2       0.89307    0.09106    0.13037   1.00
H2       0.92598    0.05822    0.10232   1.00
H2       0.93266    0.06404    0.15590   1.00
C5       0.64944    -0.13218   0.32721   1.00
H2       0.64096    -0.14745   0.29993   1.00
H2       0.62573    -0.11090   0.33319   1.00
C5       0.65259    -0.16194   0.36072   1.00
C5       0.61204    -0.17123   0.37768   1.00
H2       0.67151    -0.15015   0.38434   1.00
O3       0.78290    0.02000    0.31271   1.00
C4       0.75003    -0.02100   0.24958   1.00
C3c      0.71879    -0.04243   0.26520   1.00
H1       0.69401    -0.02725   0.27747   1.00
C3d      0.78179    -0.04135   0.23323   1.00
C3       0.71919    -0.08354   0.26579   1.00
O2       0.68565    -0.10248   0.27714   1.00
C3       0.78261    -0.08227   0.23445   1.00
H1       0.80821    -0.09657   0.22281   1.00
C2       0.75146    -0.10439   0.25052   1.00
C5       0.82406    0.02121    0.31116   1.00
H2       0.83552    0.05162    0.31251   1.00
H2       0.83517    0.00734    0.28387   1.00
C5       0.83953    -0.00129   0.34628   1.00
H2       0.82720    -0.03137   0.34553   1.00
H2       0.82856    0.01302    0.37335   1.00
C5       0.88444    -0.00262   0.34609   1.00
H2       0.89695    0.02732    0.34656   1.00
H2       0.89539    -0.01811   0.31974   1.00
C5       0.89933    -0.02445   0.38243   1.00
C5       0.80931    -0.01105   0.18075   1.00
C5       0.68719    -0.11070   0.31755   1.00
H2       0.78413    0.00912    0.17724   1.00
H2       0.80451    -0.03712   0.16184   1.00
H2       0.68909    -0.08300   0.33456   1.00
H2       0.71303    -0.12895   0.32562   1.00
H2       0.66486    -0.19030   0.35024   1.00
H2       0.82035    0.05753    0.13293   1.00
H2       0.82788    0.01237    0.10614   1.00
C2       0.75252    0.10395    0.25091   1.00
C3       0.73404    0.08403    0.21995   1.00
O2       0.72541    0.10326    0.18565   1.00
C3       0.76823    0.08174    0.28198   1.00
H1       0.78166    0.09615    0.30660   1.00
C3a      0.73256    0.04287    0.22017   1.00
H1       0.72030    0.02798    0.19520   1.00
C3b      0.76782    0.04078    0.28151   1.00
C4       0.74997    0.02100    0.25042   1.00
O3       0.81454    -0.02167   0.22018   1.00
C5       0.68538    0.11280    0.18435   1.00
H2       0.66679    0.08609    0.18615   1.00
C5       0.67811    0.13326    0.14552   1.00
H2       0.67736    0.13274    0.20877   1.00
H2       0.67584    0.11068    0.12226   1.00
H2       0.70454    0.15093    0.13873   1.00
C5       0.64143    0.15918    0.14597   1.00
H2       0.61590    0.14176    0.15579   1.00
C5       0.63291    0.17547    0.10498   1.00
H2       0.64528    0.18493    0.16565   1.00
C5       0.84628    0.00983    0.16748   1.00
H2       0.87005    -0.01215   0.16457   1.00
H2       0.85529    0.03048    0.19092   1.00
C5       0.84018    0.03200    0.12888   1.00
C5       0.87948    0.04775    0.11389   1.00
H2       0.59641    -0.19286   0.35783   1.00
C5       0.61667    -0.18912   0.41862   1.00
H2       0.59422    -0.14323   0.37977   1.00
C5       0.94310    -0.03337   0.37765   1.00
H2       0.89475    -0.00551   0.40938   1.00
H2       0.88252    -0.05293   0.38591   1.00
C5       0.59247    0.19503    0.10474   1.00
H2       0.65611    0.19789    0.09692   1.00
H2       0.63334    0.15063    0.08287   1.00
H2       0.89501    0.06398    0.13841   1.00
H2       0.89841    0.02239    0.10366   1.00
C5       0.87226    0.07583    0.07958   1.00
H2       0.64748    -0.20116   0.42203   1.00
H2       0.61131    -0.16571   0.44162   1.00
H2       0.59465    -0.21374   0.42252   1.00
H2       0.95459    -0.01820   0.35038   1.00
H2       0.95964    -0.02229   0.40429   1.00
H2       0.94747    -0.06621   0.37475   1.00
H2       0.58776    0.21111    0.13347   1.00
H2       0.59076    0.21664    0.07953   1.00
H2       0.56895    0.17181    0.10106   1.00
H2       0.86963    0.10693    0.09106   1.00
H2       0.89768    0.07402    0.05822   1.00
H2       0.84410    0.06734    0.06404   1.00
C5       0.82721    0.14944    -0.13218   1.00
H2       0.79993    0.14096    -0.14745   1.00
H2       0.83319    0.12573    -0.11090   1.00
C5       0.86072    0.15259    -0.16194   1.00
C5       0.87768    0.11204    -0.17123   1.00
H2       0.88434    0.17151    -0.15015   1.00
O3       0.81271    0.28290    0.02000   1.00
C4       0.74958    0.25003    -0.02100   1.00
C3c      0.76520    0.21879    -0.04243   1.00
H1       0.77747    0.19401    -0.02725   1.00
C3d      0.73323    0.28179    -0.04135   1.00
C3       0.76579    0.21919    -0.08354   1.00
O2       0.77714    0.18565    -0.10248   1.00
C3       0.73445    0.28261    -0.08227   1.00
H1       0.72281    0.30821    -0.09657   1.00
C2       0.75052    0.25146    -0.10439   1.00
C5       0.81116    0.32406    0.02121   1.00
H2       0.81251    0.33552    0.05162   1.00
H2       0.78387    0.33517    0.00734   1.00
C5       0.84628    0.33953    -0.00129   1.00
H2       0.84553    0.32720    -0.03137   1.00
H2       0.87335    0.32856    0.01302   1.00
C5       0.84609    0.38444    -0.00262   1.00
H2       0.84656    0.39695    0.02732   1.00
H2       0.81974    0.39539    -0.01811   1.00
C5       0.88243    0.39933    -0.02445   1.00
C5       0.68075    0.30931    -0.01105   1.00
C5       0.81755    0.18719    -0.11070   1.00
H2       0.67724    0.28413    0.00912   1.00
H2       0.66184    0.30451    -0.03712   1.00
H2       0.83456    0.18909    -0.08300   1.00
H2       0.82562    0.21303    -0.12895   1.00
H2       0.85024    0.16486    -0.19030   1.00
H2       0.63293    0.32035    0.05753   1.00
H2       0.60614    0.32788    0.01237   1.00
C2       0.75091    0.25252    0.10395   1.00
C3       0.71995    0.23404    0.08403   1.00
O2       0.68565    0.22541    0.10326   1.00
C3       0.78198    0.26823    0.08174   1.00
H1       0.80660    0.28166    0.09615   1.00
C3a      0.72017    0.23256    0.04287   1.00
H1       0.69520    0.22030    0.02798   1.00
C3b      0.78151    0.26782    0.04078   1.00
C4       0.75042    0.24997    0.02100   1.00
O3       0.72018    0.31454    -0.02167   1.00
C5       0.68435    0.18538    0.11280   1.00
H2       0.68615    0.16679    0.08609   1.00
C5       0.64552    0.17811    0.13326   1.00
H2       0.70877    0.17736    0.13274   1.00
H2       0.62226    0.17584    0.11068   1.00
H2       0.63873    0.20454    0.15093   1.00
C5       0.64597    0.14143    0.15918   1.00
H2       0.65579    0.11590    0.14176   1.00
C5       0.60498    0.13291    0.17547   1.00
H2       0.66565    0.14528    0.18493   1.00
C5       0.66748    0.34628    0.00983   1.00
H2       0.66457    0.37005    -0.01215   1.00
H2       0.69092    0.35529    0.03048   1.00
C5       0.62888    0.34018    0.03200   1.00
C5       0.61389    0.37948    0.04775   1.00
H2       0.85783    0.09641    -0.19286   1.00
C5       0.91862    0.11667    -0.18912   1.00
H2       0.87977    0.09422    -0.14323   1.00
C5       0.87765    0.44310    -0.03337   1.00
H2       0.90938    0.39475    -0.00551   1.00
H2       0.88591    0.38252    -0.05293   1.00
C5       0.60474    0.09247    0.19503   1.00
H2       0.59692    0.15611    0.19789   1.00
H2       0.58287    0.13334    0.15063   1.00
H2       0.63841    0.39501    0.06398   1.00
H2       0.60366    0.39841    0.02239   1.00
C5       0.57958    0.37226    0.07583   1.00
H2       0.92203    0.14748    -0.20116   1.00
H2       0.94162    0.11131    -0.16571   1.00
H2       0.92252    0.09465    -0.21374   1.00
H2       0.85038    0.45459    -0.01820   1.00
H2       0.90429    0.45964    -0.02229   1.00
H2       0.87475    0.44747    -0.06621   1.00
H2       0.63347    0.08776    0.21111   1.00
H2       0.57953    0.09076    0.21664   1.00
H2       0.60106    0.06895    0.17181   1.00
H2       0.59106    0.36963    0.10693   1.00
H2       0.55822    0.39768    0.07402   1.00
H2       0.56404    0.34410    0.06734   1.00
C5       0.99221    1.01556    1.29718   1.00
H2       0.96493    1.02404    1.31245   1.00
H2       0.99819    1.03927    1.27590   1.00
C5       1.02572    1.01241    1.32694   1.00
C5       1.04268    1.05296    1.33623   1.00
H2       1.04934    0.99349    1.31515   1.00
O3       0.97771    0.88210    1.14500   1.00
C4       0.91458    0.91497    1.18600   1.00
C3c      0.93020    0.94621    1.20743   1.00
H1       0.94247    0.97099    1.19225   1.00
C3d      0.89823    0.88321    1.20635   1.00
C3       0.93079    0.94581    1.24854   1.00
O2       0.94214    0.97935    1.26748   1.00
C3       0.89945    0.88239    1.24727   1.00
H1       0.88781    0.85679    1.26157   1.00
C2       0.91552    0.91354    1.26939   1.00
C5       0.97616    0.84094    1.14379   1.00
H2       0.97751    0.82948    1.11338   1.00
H2       0.94887    0.82983    1.15766   1.00
C5       1.01128    0.82547    1.16629   1.00
H2       1.01053    0.83780    1.19637   1.00
H2       1.03835    0.83644    1.15198   1.00
C5       1.01109    0.78056    1.16762   1.00
H2       1.01156    0.76805    1.13768   1.00
H2       0.98474    0.76961    1.18311   1.00
C5       1.04743    0.76567    1.18945   1.00
C5       0.84575    0.85569    1.17605   1.00
C5       0.98255    0.97781    1.27570   1.00
H2       0.84224    0.88087    1.15588   1.00
H2       0.82684    0.86049    1.20212   1.00
H2       0.99956    0.97591    1.24800   1.00
H2       0.99062    0.95197    1.29395   1.00
H2       1.01524    1.00014    1.35530   1.00
H2       0.79793    0.84465    1.10747   1.00
H2       0.77114    0.83712    1.15263   1.00
C2       0.91591    0.91248    1.06105   1.00
C3       0.88495    0.93096    1.08097   1.00
O2       0.85065    0.93959    1.06174   1.00
C3       0.94698    0.89677    1.08326   1.00
H1       0.97160    0.88334    1.06885   1.00
C3a      0.88517    0.93244    1.12213   1.00
H1       0.86020    0.94470    1.13702   1.00
C3b      0.94651    0.89718    1.12422   1.00
C4       0.91542    0.91503    1.14400   1.00
O3       0.88518    0.85046    1.18667   1.00
C5       0.84935    0.97962    1.05220   1.00
H2       0.85115    0.99821    1.07891   1.00
C5       0.81052    0.98689    1.03174   1.00
H2       0.87377    0.98764    1.03226   1.00
H2       0.78726    0.98916    1.05432   1.00
H2       0.80373    0.96046    1.01407   1.00
C5       0.81097    1.02357    1.00582   1.00
H2       0.82079    1.04910    1.02324   1.00
C5       0.76998    1.03209    0.98953   1.00
H2       0.83065    1.01972    0.98007   1.00
C5       0.83248    0.81872    1.15517   1.00
H2       0.82957    0.79495    1.17715   1.00
H2       0.85592    0.80971    1.13452   1.00
C5       0.79388    0.82482    1.13300   1.00
C5       0.77889    0.78552    1.11725   1.00
H2       1.02283    1.06859    1.35786   1.00
C5       1.08362    1.04833    1.35412   1.00
H2       1.04477    1.07078    1.30823   1.00
C5       1.04265    0.72190    1.19837   1.00
H2       1.07438    0.77025    1.17051   1.00
H2       1.05091    0.78248    1.21793   1.00
C5       0.76974    1.07253    0.96997   1.00
H2       0.76192    1.00889    0.96711   1.00
H2       0.74787    1.03166    1.01437   1.00
H2       0.80341    0.76999    1.10102   1.00
H2       0.76866    0.76659    1.14261   1.00
C5       0.74458    0.79274    1.08917   1.00
H2       1.08703    1.01752    1.36616   1.00
H2       1.10662    1.05369    1.33071   1.00
H2       1.08752    1.07035    1.37874   1.00
H2       1.01538    0.71041    1.18320   1.00
H2       1.06929    0.70536    1.18729   1.00
H2       1.03975    0.71753    1.23121   1.00
H2       0.79847    1.07724    0.95389   1.00
H2       0.74453    1.07424    0.94836   1.00
H2       0.76606    1.09605    0.99319   1.00
H2       0.75606    0.79537    1.05807   1.00
H2       0.72322    0.76732    1.09098   1.00
H2       0.72904    0.82090    1.09766   1.00
C5       1.01556    1.29718    0.99221   1.00
H2       1.02404    1.31245    0.96493   1.00
H2       1.03927    1.27590    0.99819   1.00
C5       1.01241    1.32694    1.02572   1.00
C5       1.05296    1.33623    1.04268   1.00
H2       0.99349    1.31515    1.04934   1.00
O3       0.88210    1.14500    0.97771   1.00
C4       0.91497    1.18600    0.91458   1.00
C3c      0.94621    1.20743    0.93020   1.00
H1       0.97099    1.19225    0.94247   1.00
C3d      0.88321    1.20635    0.89823   1.00
C3       0.94581    1.24854    0.93079   1.00
O2       0.97935    1.26748    0.94214   1.00
C3       0.88239    1.24727    0.89945   1.00
H1       0.85679    1.26157    0.88781   1.00
C2       0.91354    1.26939    0.91552   1.00
C5       0.84094    1.14379    0.97616   1.00
H2       0.82948    1.11338    0.97751   1.00
H2       0.82983    1.15766    0.94887   1.00
C5       0.82547    1.16629    1.01128   1.00
H2       0.83780    1.19637    1.01053   1.00
H2       0.83644    1.15198    1.03835   1.00
C5       0.78056    1.16762    1.01109   1.00
H2       0.76805    1.13768    1.01156   1.00
H2       0.76961    1.18311    0.98474   1.00
C5       0.76567    1.18945    1.04743   1.00
C5       0.85569    1.17605    0.84575   1.00
C5       0.97781    1.27570    0.98255   1.00
H2       0.88087    1.15588    0.84224   1.00
H2       0.86049    1.20212    0.82684   1.00
H2       0.97591    1.24800    0.99956   1.00
H2       0.95197    1.29395    0.99062   1.00
H2       1.00014    1.35530    1.01524   1.00
H2       0.84465    1.10747    0.79793   1.00
H2       0.83712    1.15263    0.77114   1.00
C2       0.91248    1.06105    0.91591   1.00
C3       0.93096    1.08097    0.88495   1.00
O2       0.93959    1.06174    0.85065   1.00
C3       0.89677    1.08326    0.94698   1.00
H1       0.88334    1.06885    0.97160   1.00
C3a      0.93244    1.12213    0.88517   1.00
H1       0.94470    1.13702    0.86020   1.00
C3b      0.89718    1.12422    0.94651   1.00
C4       0.91503    1.14400    0.91542   1.00
O3       0.85046    1.18667    0.88518   1.00
C5       0.97962    1.05220    0.84935   1.00
H2       0.99821    1.07891    0.85115   1.00
C5       0.98689    1.03174    0.81052   1.00
H2       0.98764    1.03226    0.87377   1.00
H2       0.98916    1.05432    0.78726   1.00
H2       0.96046    1.01407    0.80373   1.00
C5       1.02357    1.00582    0.81097   1.00
H2       1.04910    1.02324    0.82079   1.00
C5       1.03209    0.98953    0.76998   1.00
H2       1.01972    0.98007    0.83065   1.00
C5       0.81872    1.15517    0.83248   1.00
H2       0.79495    1.17715    0.82957   1.00
H2       0.80971    1.13452    0.85592   1.00
C5       0.82482    1.13300    0.79388   1.00
C5       0.78552    1.11725    0.77889   1.00
H2       1.06859    1.35786    1.02283   1.00
C5       1.04833    1.35412    1.08362   1.00
H2       1.07078    1.30823    1.04477   1.00
C5       0.72190    1.19837    1.04265   1.00
H2       0.77025    1.17051    1.07438   1.00
H2       0.78248    1.21793    1.05091   1.00
C5       1.07253    0.96997    0.76974   1.00
H2       1.00889    0.96711    0.76192   1.00
H2       1.03166    1.01437    0.74787   1.00
H2       0.76999    1.10102    0.80341   1.00
H2       0.76659    1.14261    0.76866   1.00
C5       0.79274    1.08917    0.74458   1.00
H2       1.01752    1.36616    1.08703   1.00
H2       1.05369    1.33071    1.10662   1.00
H2       1.07035    1.37874    1.08752   1.00
H2       0.71041    1.18320    1.01538   1.00
H2       0.70536    1.18729    1.06929   1.00
H2       0.71753    1.23121    1.03975   1.00
H2       1.07724    0.95389    0.79847   1.00
H2       1.07424    0.94836    0.74453   1.00
H2       1.09605    0.99319    0.76606   1.00
H2       0.79537    1.05807    0.75606   1.00
H2       0.76732    1.09098    0.72322   1.00
H2       0.82090    1.09766    0.72904   1.00
C5       0.53282    0.99221    0.81444   1.00
H2       0.51755    0.96493    0.80596   1.00
H2       0.55410    0.99819    0.79073   1.00
C5       0.50306    1.02572    0.81759   1.00
C5       0.49377    1.04268    0.77704   1.00
H2       0.51485    1.04934    0.83651   1.00
O3       0.68500    0.97771    0.94790   1.00
C4       0.64400    0.91458    0.91503   1.00
C3c      0.62257    0.93020    0.88379   1.00
H1       0.63775    0.94247    0.85901   1.00
C3d      0.62365    0.89823    0.94679   1.00
C3       0.58146    0.93079    0.88419   1.00
O2       0.56252    0.94214    0.85065   1.00
C3       0.58273    0.89945    0.94761   1.00
H1       0.56843    0.88781    0.97321   1.00
C2       0.56061    0.91552    0.91646   1.00
C5       0.68621    0.97616    0.98906   1.00
H2       0.71662    0.97751    1.00052   1.00
H2       0.67234    0.94887    1.00017   1.00
C5       0.66371    1.01128    1.00453   1.00
H2       0.63363    1.01053    0.99220   1.00
H2       0.67802    1.03835    0.99356   1.00
C5       0.66238    1.01109    1.04944   1.00
H2       0.69232    1.01156    1.06195   1.00
H2       0.64689    0.98474    1.06039   1.00
C5       0.64055    1.04743    1.06433   1.00
C5       0.65395    0.84575    0.97431   1.00
C5       0.55430    0.98255    0.85219   1.00
H2       0.67412    0.84224    0.94913   1.00
H2       0.62788    0.82684    0.96951   1.00
H2       0.58200    0.99956    0.85409   1.00
H2       0.53605    0.99062    0.87803   1.00
H2       0.47470    1.01524    0.82986   1.00
H2       0.72253    0.79793    0.98535   1.00
H2       0.67737    0.77114    0.99288   1.00
C2       0.76895    0.91591    0.91752   1.00
C3       0.74903    0.88495    0.89904   1.00
O2       0.76826    0.85065    0.89041   1.00
C3       0.74674    0.94698    0.93323   1.00
H1       0.76115    0.97160    0.94666   1.00
C3a      0.70787    0.88517    0.89756   1.00
H1       0.69298    0.86020    0.88530   1.00
C3b      0.70578    0.94651    0.93282   1.00
C4       0.68600    0.91542    0.91497   1.00
O3       0.64333    0.88518    0.97954   1.00
C5       0.77780    0.84935    0.85038   1.00
H2       0.75109    0.85115    0.83179   1.00
C5       0.79826    0.81052    0.84311   1.00
H2       0.79774    0.87377    0.84236   1.00
H2       0.77568    0.78726    0.84084   1.00
H2       0.81593    0.80373    0.86954   1.00
C5       0.82418    0.81097    0.80643   1.00
H2       0.80676    0.82079    0.78090   1.00
C5       0.84047    0.76998    0.79791   1.00
H2       0.84993    0.83065    0.81028   1.00
C5       0.67483    0.83248    1.01128   1.00
H2       0.65285    0.82957    1.03505   1.00
H2       0.69548    0.85592    1.02029   1.00
C5       0.69700    0.79388    1.00518   1.00
C5       0.71275    0.77889    1.04448   1.00
H2       0.47214    1.02283    0.76141   1.00
C5       0.47588    1.08362    0.78167   1.00
H2       0.52177    1.04477    0.75922   1.00
C5       0.63163    1.04265    1.10810   1.00
H2       0.65949    1.07438    1.05975   1.00
H2       0.61207    1.05091    1.04752   1.00
C5       0.86003    0.76974    0.75747   1.00
H2       0.86289    0.76192    0.82111   1.00
H2       0.81563    0.74787    0.79834   1.00
H2       0.72898    0.80341    1.06001   1.00
H2       0.68739    0.76866    1.06341   1.00
C5       0.74083    0.74458    1.03726   1.00
H2       0.46384    1.08703    0.81248   1.00
H2       0.49929    1.10662    0.77631   1.00
H2       0.45126    1.08752    0.75965   1.00
H2       0.64680    1.01538    1.11959   1.00
H2       0.64271    1.06929    1.12464   1.00
H2       0.59879    1.03975    1.11247   1.00
H2       0.87611    0.79847    0.75276   1.00
H2       0.88164    0.74453    0.75576   1.00
H2       0.83681    0.76606    0.73395   1.00
H2       0.77193    0.75606    1.03463   1.00
H2       0.73902    0.72322    1.06268   1.00
H2       0.73234    0.72904    1.00910   1.00
C5       1.29718    0.99221    1.01556   1.00
H2       1.31245    0.96493    1.02404   1.00
H2       1.27590    0.99819    1.03927   1.00
C5       1.32694    1.02572    1.01241   1.00
C5       1.33623    1.04268    1.05296   1.00
H2       1.31515    1.04934    0.99349   1.00
O3       1.14500    0.97771    0.88210   1.00
C4       1.18600    0.91458    0.91497   1.00
C3c      1.20743    0.93020    0.94621   1.00
H1       1.19225    0.94247    0.97099   1.00
C3d      1.20635    0.89823    0.88321   1.00
C3       1.24854    0.93079    0.94581   1.00
O2       1.26748    0.94214    0.97935   1.00
C3       1.24727    0.89945    0.88239   1.00
H1       1.26157    0.88781    0.85679   1.00
C2       1.26939    0.91552    0.91354   1.00
C5       1.14379    0.97616    0.84094   1.00
H2       1.11338    0.97751    0.82948   1.00
H2       1.15766    0.94887    0.82983   1.00
C5       1.16629    1.01128    0.82547   1.00
H2       1.19637    1.01053    0.83780   1.00
H2       1.15198    1.03835    0.83644   1.00
C5       1.16762    1.01109    0.78056   1.00
H2       1.13768    1.01156    0.76805   1.00
H2       1.18311    0.98474    0.76961   1.00
C5       1.18945    1.04743    0.76567   1.00
C5       1.17605    0.84575    0.85569   1.00
C5       1.27570    0.98255    0.97781   1.00
H2       1.15588    0.84224    0.88087   1.00
H2       1.20212    0.82684    0.86049   1.00
H2       1.24800    0.99956    0.97591   1.00
H2       1.29395    0.99062    0.95197   1.00
H2       1.35530    1.01524    1.00014   1.00
H2       1.10747    0.79793    0.84465   1.00
H2       1.15263    0.77114    0.83712   1.00
C2       1.06105    0.91591    0.91248   1.00
C3       1.08097    0.88495    0.93096   1.00
O2       1.06174    0.85065    0.93959   1.00
C3       1.08326    0.94698    0.89677   1.00
H1       1.06885    0.97160    0.88334   1.00
C3a      1.12213    0.88517    0.93244   1.00
H1       1.13702    0.86020    0.94470   1.00
C3b      1.12422    0.94651    0.89718   1.00
C4       1.14400    0.91542    0.91503   1.00
O3       1.18667    0.88518    0.85046   1.00
C5       1.05220    0.84935    0.97962   1.00
H2       1.07891    0.85115    0.99821   1.00
C5       1.03174    0.81052    0.98689   1.00
H2       1.03226    0.87377    0.98764   1.00
H2       1.05432    0.78726    0.98916   1.00
H2       1.01407    0.80373    0.96046   1.00
C5       1.00582    0.81097    1.02357   1.00
H2       1.02324    0.82079    1.04910   1.00
C5       0.98953    0.76998    1.03209   1.00
H2       0.98007    0.83065    1.01972   1.00
C5       1.15517    0.83248    0.81872   1.00
H2       1.17715    0.82957    0.79495   1.00
H2       1.13452    0.85592    0.80971   1.00
C5       1.13300    0.79388    0.82482   1.00
C5       1.11725    0.77889    0.78552   1.00
H2       1.35786    1.02283    1.06859   1.00
C5       1.35412    1.08362    1.04833   1.00
H2       1.30823    1.04477    1.07078   1.00
C5       1.19837    1.04265    0.72190   1.00
H2       1.17051    1.07438    0.77025   1.00
H2       1.21793    1.05091    0.78248   1.00
C5       0.96997    0.76974    1.07253   1.00
H2       0.96711    0.76192    1.00889   1.00
H2       1.01437    0.74787    1.03166   1.00
H2       1.10102    0.80341    0.76999   1.00
H2       1.14261    0.76866    0.76659   1.00
C5       1.08917    0.74458    0.79274   1.00
H2       1.36616    1.08703    1.01752   1.00
H2       1.33071    1.10662    1.05369   1.00
H2       1.37874    1.08752    1.07035   1.00
H2       1.18320    1.01538    0.71041   1.00
H2       1.18729    1.06929    0.70536   1.00
H2       1.23121    1.03975    0.71753   1.00
H2       0.95389    0.79847    1.07724   1.00
H2       0.94836    0.74453    1.07424   1.00
H2       0.99319    0.76606    1.09605   1.00
H2       1.05807    0.75606    0.79537   1.00
H2       1.09098    0.72322    0.76732   1.00
H2       1.09766    0.72904    0.82090   1.00
C5       0.81444    0.53282    0.99221   1.00
H2       0.80596    0.51755    0.96493   1.00
H2       0.79073    0.55410    0.99819   1.00
C5       0.81759    0.50306    1.02572   1.00
C5       0.77704    0.49377    1.04268   1.00
H2       0.83651    0.51485    1.04934   1.00
O3       0.94790    0.68500    0.97771   1.00
C4       0.91503    0.64400    0.91458   1.00
C3c      0.88379    0.62257    0.93020   1.00
H1       0.85901    0.63775    0.94247   1.00
C3d      0.94679    0.62365    0.89823   1.00
C3       0.88419    0.58146    0.93079   1.00
O2       0.85065    0.56252    0.94214   1.00
C3       0.94761    0.58273    0.89945   1.00
H1       0.97321    0.56843    0.88781   1.00
C2       0.91646    0.56061    0.91552   1.00
C5       0.98906    0.68621    0.97616   1.00
H2       1.00052    0.71662    0.97751   1.00
H2       1.00017    0.67234    0.94887   1.00
C5       1.00453    0.66371    1.01128   1.00
H2       0.99220    0.63363    1.01053   1.00
H2       0.99356    0.67802    1.03835   1.00
C5       1.04944    0.66238    1.01109   1.00
H2       1.06195    0.69232    1.01156   1.00
H2       1.06039    0.64689    0.98474   1.00
C5       1.06433    0.64055    1.04743   1.00
C5       0.97431    0.65395    0.84575   1.00
C5       0.85219    0.55430    0.98255   1.00
H2       0.94913    0.67412    0.84224   1.00
H2       0.96951    0.62788    0.82684   1.00
H2       0.85409    0.58200    0.99956   1.00
H2       0.87803    0.53605    0.99062   1.00
H2       0.82986    0.47470    1.01524   1.00
H2       0.98535    0.72253    0.79793   1.00
H2       0.99288    0.67737    0.77114   1.00
C2       0.91752    0.76895    0.91591   1.00
C3       0.89904    0.74903    0.88495   1.00
O2       0.89041    0.76826    0.85065   1.00
C3       0.93323    0.74674    0.94698   1.00
H1       0.94666    0.76115    0.97160   1.00
C3a      0.89756    0.70787    0.88517   1.00
H1       0.88530    0.69298    0.86020   1.00
C3b      0.93282    0.70578    0.94651   1.00
C4       0.91497    0.68600    0.91542   1.00
O3       0.97954    0.64333    0.88518   1.00
C5       0.85038    0.77780    0.84935   1.00
H2       0.83179    0.75109    0.85115   1.00
C5       0.84311    0.79826    0.81052   1.00
H2       0.84236    0.79774    0.87377   1.00
H2       0.84084    0.77568    0.78726   1.00
H2       0.86954    0.81593    0.80373   1.00
C5       0.80643    0.82418    0.81097   1.00
H2       0.78090    0.80676    0.82079   1.00
C5       0.79791    0.84047    0.76998   1.00
H2       0.81028    0.84993    0.83065   1.00
C5       1.01128    0.67483    0.83248   1.00
H2       1.03505    0.65285    0.82957   1.00
H2       1.02029    0.69548    0.85592   1.00
C5       1.00518    0.69700    0.79388   1.00
C5       1.04448    0.71275    0.77889   1.00
H2       0.76141    0.47214    1.02283   1.00
C5       0.78167    0.47588    1.08362   1.00
H2       0.75922    0.52177    1.04477   1.00
C5       1.10810    0.63163    1.04265   1.00
H2       1.05975    0.65949    1.07438   1.00
H2       1.04752    0.61207    1.05091   1.00
C5       0.75747    0.86003    0.76974   1.00
H2       0.82111    0.86289    0.76192   1.00
H2       0.79834    0.81563    0.74787   1.00
H2       1.06001    0.72898    0.80341   1.00
H2       1.06341    0.68739    0.76866   1.00
C5       1.03726    0.74083    0.74458   1.00
H2       0.81248    0.46384    1.08703   1.00
H2       0.77631    0.49929    1.10662   1.00
H2       0.75965    0.45126    1.08752   1.00
H2       1.11959    0.64680    1.01538   1.00
H2       1.12464    0.64271    1.06929   1.00
H2       1.11247    0.59879    1.03975   1.00
H2       0.75276    0.87611    0.79847   1.00
H2       0.75576    0.88164    0.74453   1.00
H2       0.73395    0.83681    0.76606   1.00
H2       1.03463    0.77193    0.75606   1.00
H2       1.06268    0.73902    0.72322   1.00
H2       1.00910    0.73234    0.72904   1.00
C5       0.99221    0.81444    0.53282   1.00
H2       0.96493    0.80596    0.51755   1.00
H2       0.99819    0.79073    0.55410   1.00
C5       1.02572    0.81759    0.50306   1.00
C5       1.04268    0.77704    0.49377   1.00
H2       1.04934    0.83651    0.51485   1.00
O3       0.97771    0.94790    0.68500   1.00
C4       0.91458    0.91503    0.64400   1.00
C3c      0.93020    0.88379    0.62257   1.00
H1       0.94247    0.85901    0.63775   1.00
C3d      0.89823    0.94679    0.62365   1.00
C3       0.93079    0.88419    0.58146   1.00
O2       0.94214    0.85065    0.56252   1.00
C3       0.89945    0.94761    0.58273   1.00
H1       0.88781    0.97321    0.56843   1.00
C2       0.91552    0.91646    0.56061   1.00
C5       0.97616    0.98906    0.68621   1.00
H2       0.97751    1.00052    0.71662   1.00
H2       0.94887    1.00017    0.67234   1.00
C5       1.01128    1.00453    0.66371   1.00
H2       1.01053    0.99220    0.63363   1.00
H2       1.03835    0.99356    0.67802   1.00
C5       1.01109    1.04944    0.66238   1.00
H2       1.01156    1.06195    0.69232   1.00
H2       0.98474    1.06039    0.64689   1.00
C5       1.04743    1.06433    0.64055   1.00
C5       0.84575    0.97431    0.65395   1.00
C5       0.98255    0.85219    0.55430   1.00
H2       0.84224    0.94913    0.67412   1.00
H2       0.82684    0.96951    0.62788   1.00
H2       0.99956    0.85409    0.58200   1.00
H2       0.99062    0.87803    0.53605   1.00
H2       1.01524    0.82986    0.47470   1.00
H2       0.79793    0.98535    0.72253   1.00
H2       0.77114    0.99288    0.67737   1.00
C2       0.91591    0.91752    0.76895   1.00
C3       0.88495    0.89904    0.74903   1.00
O2       0.85065    0.89041    0.76826   1.00
C3       0.94698    0.93323    0.74674   1.00
H1       0.97160    0.94666    0.76115   1.00
C3a      0.88517    0.89756    0.70787   1.00
H1       0.86020    0.88530    0.69298   1.00
C3b      0.94651    0.93282    0.70578   1.00
C4       0.91542    0.91497    0.68600   1.00
O3       0.88518    0.97954    0.64333   1.00
C5       0.84935    0.85038    0.77780   1.00
H2       0.85115    0.83179    0.75109   1.00
C5       0.81052    0.84311    0.79826   1.00
H2       0.87377    0.84236    0.79774   1.00
H2       0.78726    0.84084    0.77568   1.00
H2       0.80373    0.86954    0.81593   1.00
C5       0.81097    0.80643    0.82418   1.00
H2       0.82079    0.78090    0.80676   1.00
C5       0.76998    0.79791    0.84047   1.00
H2       0.83065    0.81028    0.84993   1.00
C5       0.83248    1.01128    0.67483   1.00
H2       0.82957    1.03505    0.65285   1.00
H2       0.85592    1.02029    0.69548   1.00
C5       0.79388    1.00518    0.69700   1.00
C5       0.77889    1.04448    0.71275   1.00
H2       1.02283    0.76141    0.47214   1.00
C5       1.08362    0.78167    0.47588   1.00
H2       1.04477    0.75922    0.52177   1.00
C5       1.04265    1.10810    0.63163   1.00
H2       1.07438    1.05975    0.65949   1.00
H2       1.05091    1.04752    0.61207   1.00
C5       0.76974    0.75747    0.86003   1.00
H2       0.76192    0.82111    0.86289   1.00
H2       0.74787    0.79834    0.81563   1.00
H2       0.80341    1.06001    0.72898   1.00
H2       0.76866    1.06341    0.68739   1.00
C5       0.74458    1.03726    0.74083   1.00
H2       1.08703    0.81248    0.46384   1.00
H2       1.10662    0.77631    0.49929   1.00
H2       1.08752    0.75965    0.45126   1.00
H2       1.01538    1.11959    0.64680   1.00
H2       1.06929    1.12464    0.64271   1.00
H2       1.03975    1.11247    0.59879   1.00
H2       0.79847    0.75276    0.87611   1.00
H2       0.74453    0.75576    0.88164   1.00
H2       0.76606    0.73395    0.83681   1.00
H2       0.75606    1.03463    0.77193   1.00
H2       0.72322    1.06268    0.73902   1.00
H2       0.72904    1.00910    0.73234   1.00
C5       0.49221    0.51556    1.29718   1.00
H2       0.46493    0.52404    1.31245   1.00
H2       0.49819    0.53927    1.27590   1.00
C5       0.52572    0.51241    1.32694   1.00
C5       0.54268    0.55296    1.33623   1.00
H2       0.54934    0.49349    1.31515   1.00
O3       0.47771    0.38210    1.14500   1.00
C4       0.41458    0.41497    1.18600   1.00
C3c      0.43020    0.44621    1.20743   1.00
H1       0.44247    0.47099    1.19225   1.00
C3d      0.39823    0.38321    1.20635   1.00
C3       0.43079    0.44581    1.24854   1.00
O2       0.44214    0.47935    1.26748   1.00
C3       0.39945    0.38239    1.24727   1.00
H1       0.38781    0.35679    1.26157   1.00
C2       0.41552    0.41354    1.26939   1.00
C5       0.47616    0.34094    1.14379   1.00
H2       0.47751    0.32948    1.11338   1.00
H2       0.44887    0.32983    1.15766   1.00
C5       0.51128    0.32547    1.16629   1.00
H2       0.51053    0.33780    1.19637   1.00
H2       0.53835    0.33644    1.15198   1.00
C5       0.51109    0.28056    1.16762   1.00
H2       0.51156    0.26805    1.13768   1.00
H2       0.48474    0.26961    1.18311   1.00
C5       0.54743    0.26567    1.18945   1.00
C5       0.34575    0.35569    1.17605   1.00
C5       0.48255    0.47781    1.27570   1.00
H2       0.34224    0.38087    1.15588   1.00
H2       0.32684    0.36049    1.20212   1.00
H2       0.49956    0.47591    1.24800   1.00
H2       0.49062    0.45197    1.29395   1.00
H2       0.51524    0.50014    1.35530   1.00
H2       0.29793    0.34465    1.10747   1.00
H2       0.27114    0.33712    1.15263   1.00
C2       0.41591    0.41248    1.06105   1.00
C3       0.38495    0.43096    1.08097   1.00
O2       0.35065    0.43959    1.06174   1.00
C3       0.44698    0.39677    1.08326   1.00
H1       0.47160    0.38334    1.06885   1.00
C3a      0.38517    0.43244    1.12213   1.00
H1       0.36020    0.44470    1.13702   1.00
C3b      0.44651    0.39718    1.12422   1.00
C4       0.41542    0.41503    1.14400   1.00
O3       0.38518    0.35046    1.18667   1.00
C5       0.34935    0.47962    1.05220   1.00
H2       0.35115    0.49821    1.07891   1.00
C5       0.31052    0.48689    1.03174   1.00
H2       0.37377    0.48764    1.03226   1.00
H2       0.28726    0.48916    1.05432   1.00
H2       0.30373    0.46046    1.01407   1.00
C5       0.31097    0.52357    1.00582   1.00
H2       0.32079    0.54910    1.02324   1.00
C5       0.26998    0.53209    0.98953   1.00
H2       0.33065    0.51972    0.98007   1.00
C5       0.33248    0.31872    1.15517   1.00
H2       0.32957    0.29495    1.17715   1.00
H2       0.35592    0.30971    1.13452   1.00
C5       0.29388    0.32482    1.13300   1.00
C5       0.27889    0.28552    1.11725   1.00
H2       0.52283    0.56859    1.35786   1.00
C5       0.58362    0.54833    1.35412   1.00
H2       0.54477    0.57078    1.30823   1.00
C5       0.54265    0.22190    1.19837   1.00
H2       0.57438    0.27025    1.17051   1.00
H2       0.55091    0.28248    1.21793   1.00
C5       0.26974    0.57253    0.96997   1.00
H2       0.26192    0.50889    0.96711   1.00
H2       0.24787    0.53166    1.01437   1.00
H2       0.30341    0.26999    1.10102   1.00
H2       0.26866    0.26659    1.14261   1.00
C5       0.24458    0.29274    1.08917   1.00
H2       0.58703    0.51752    1.36616   1.00
H2       0.60662    0.55369    1.33071   1.00
H2       0.58752    0.57035    1.37874   1.00
H2       0.51538    0.21041    1.18320   1.00
H2       0.56929    0.20536    1.18729   1.00
H2       0.53975    0.21753    1.23121   1.00
H2       0.29847    0.57724    0.95389   1.00
H2       0.24453    0.57424    0.94836   1.00
H2       0.26606    0.59605    0.99319   1.00
H2       0.25606    0.29537    1.05807   1.00
H2       0.22322    0.26732    1.09098   1.00
H2       0.22904    0.32090    1.09766   1.00
C5       0.51556    0.79718    0.99221   1.00
H2       0.52404    0.81245    0.96493   1.00
H2       0.53927    0.77590    0.99819   1.00
C5       0.51241    0.82694    1.02572   1.00
C5       0.55296    0.83623    1.04268   1.00
H2       0.49349    0.81515    1.04934   1.00
O3       0.38210    0.64500    0.97771   1.00
C4       0.41497    0.68600    0.91458   1.00
C3c      0.44621    0.70743    0.93020   1.00
H1       0.47099    0.69225    0.94247   1.00
C3d      0.38321    0.70635    0.89823   1.00
C3       0.44581    0.74854    0.93079   1.00
O2       0.47935    0.76748    0.94214   1.00
C3       0.38239    0.74727    0.89945   1.00
H1       0.35679    0.76157    0.88781   1.00
C2       0.41354    0.76939    0.91552   1.00
C5       0.34094    0.64379    0.97616   1.00
H2       0.32948    0.61338    0.97751   1.00
H2       0.32983    0.65766    0.94887   1.00
C5       0.32547    0.66629    1.01128   1.00
H2       0.33780    0.69637    1.01053   1.00
H2       0.33644    0.65198    1.03835   1.00
C5       0.28056    0.66762    1.01109   1.00
H2       0.26805    0.63768    1.01156   1.00
H2       0.26961    0.68311    0.98474   1.00
C5       0.26567    0.68945    1.04743   1.00
C5       0.35569    0.67605    0.84575   1.00
C5       0.47781    0.77570    0.98255   1.00
H2       0.38087    0.65588    0.84224   1.00
H2       0.36049    0.70212    0.82684   1.00
H2       0.47591    0.74800    0.99956   1.00
H2       0.45197    0.79395    0.99062   1.00
H2       0.50014    0.85530    1.01524   1.00
H2       0.34465    0.60747    0.79793   1.00
H2       0.33712    0.65263    0.77114   1.00
C2       0.41248    0.56105    0.91591   1.00
C3       0.43096    0.58097    0.88495   1.00
O2       0.43959    0.56174    0.85065   1.00
C3       0.39677    0.58326    0.94698   1.00
H1       0.38334    0.56885    0.97160   1.00
C3a      0.43244    0.62213    0.88517   1.00
H1       0.44470    0.63702    0.86020   1.00
C3b      0.39718    0.62422    0.94651   1.00
C4       0.41503    0.64400    0.91542   1.00
O3       0.35046    0.68667    0.88518   1.00
C5       0.47962    0.55220    0.84935   1.00
H2       0.49821    0.57891    0.85115   1.00
C5       0.48689    0.53174    0.81052   1.00
H2       0.48764    0.53226    0.87377   1.00
H2       0.48916    0.55432    0.78726   1.00
H2       0.46046    0.51407    0.80373   1.00
C5       0.52357    0.50582    0.81097   1.00
H2       0.54910    0.52324    0.82079   1.00
C5       0.53209    0.48953    0.76998   1.00
H2       0.51972    0.48007    0.83065   1.00
C5       0.31872    0.65517    0.83248   1.00
H2       0.29495    0.67715    0.82957   1.00
H2       0.30971    0.63452    0.85592   1.00
C5       0.32482    0.63300    0.79388   1.00
C5       0.28552    0.61725    0.77889   1.00
H2       0.56859    0.85786    1.02283   1.00
C5       0.54833    0.85412    1.08362   1.00
H2       0.57078    0.80823    1.04477   1.00
C5       0.22190    0.69837    1.04265   1.00
H2       0.27025    0.67051    1.07438   1.00
H2       0.28248    0.71793    1.05091   1.00
C5       0.57253    0.46997    0.76974   1.00
H2       0.50889    0.46711    0.76192   1.00
H2       0.53166    0.51437    0.74787   1.00
H2       0.26999    0.60102    0.80341   1.00
H2       0.26659    0.64261    0.76866   1.00
C5       0.29274    0.58917    0.74458   1.00
H2       0.51752    0.86616    1.08703   1.00
H2       0.55369    0.83071    1.10662   1.00
H2       0.57035    0.87874    1.08752   1.00
H2       0.21041    0.68320    1.01538   1.00
H2       0.20536    0.68729    1.06929   1.00
H2       0.21753    0.73121    1.03975   1.00
H2       0.57724    0.45389    0.79847   1.00
H2       0.57424    0.44836    0.74453   1.00
H2       0.59605    0.49319    0.76606   1.00
H2       0.29537    0.55807    0.75606   1.00
H2       0.26732    0.59098    0.72322   1.00
H2       0.32090    0.59766    0.72904   1.00
C5       0.03282    0.49221    0.81444   1.00
H2       0.01755    0.46493    0.80596   1.00
H2       0.05410    0.49819    0.79073   1.00
C5       0.00306    0.52572    0.81759   1.00
C5       -0.00623   0.54268    0.77704   1.00
H2       0.01485    0.54934    0.83651   1.00
O3       0.18500    0.47771    0.94790   1.00
C4       0.14400    0.41458    0.91503   1.00
C3c      0.12257    0.43020    0.88379   1.00
H1       0.13775    0.44247    0.85901   1.00
C3d      0.12365    0.39823    0.94679   1.00
C3       0.08146    0.43079    0.88419   1.00
O2       0.06252    0.44214    0.85065   1.00
C3       0.08273    0.39945    0.94761   1.00
H1       0.06843    0.38781    0.97321   1.00
C2       0.06061    0.41552    0.91646   1.00
C5       0.18621    0.47616    0.98906   1.00
H2       0.21662    0.47751    1.00052   1.00
H2       0.17234    0.44887    1.00017   1.00
C5       0.16371    0.51128    1.00453   1.00
H2       0.13363    0.51053    0.99220   1.00
H2       0.17802    0.53835    0.99356   1.00
C5       0.16238    0.51109    1.04944   1.00
H2       0.19232    0.51156    1.06195   1.00
H2       0.14689    0.48474    1.06039   1.00
C5       0.14055    0.54743    1.06433   1.00
C5       0.15395    0.34575    0.97431   1.00
C5       0.05430    0.48255    0.85219   1.00
H2       0.17412    0.34224    0.94913   1.00
H2       0.12788    0.32684    0.96951   1.00
H2       0.08200    0.49956    0.85409   1.00
H2       0.03605    0.49062    0.87803   1.00
H2       -0.02530   0.51524    0.82986   1.00
H2       0.22253    0.29793    0.98535   1.00
H2       0.17737    0.27114    0.99288   1.00
C2       0.26895    0.41591    0.91752   1.00
C3       0.24903    0.38495    0.89904   1.00
O2       0.26826    0.35065    0.89041   1.00
C3       0.24674    0.44698    0.93323   1.00
H1       0.26115    0.47160    0.94666   1.00
C3a      0.20787    0.38517    0.89756   1.00
H1       0.19298    0.36020    0.88530   1.00
C3b      0.20578    0.44651    0.93282   1.00
C4       0.18600    0.41542    0.91497   1.00
O3       0.14333    0.38518    0.97954   1.00
C5       0.27780    0.34935    0.85038   1.00
H2       0.25109    0.35115    0.83179   1.00
C5       0.29826    0.31052    0.84311   1.00
H2       0.29774    0.37377    0.84236   1.00
H2       0.27568    0.28726    0.84084   1.00
H2       0.31593    0.30373    0.86954   1.00
C5       0.32418    0.31097    0.80643   1.00
H2       0.30676    0.32079    0.78090   1.00
C5       0.34047    0.26998    0.79791   1.00
H2       0.34993    0.33065    0.81028   1.00
C5       0.17483    0.33248    1.01128   1.00
H2       0.15285    0.32957    1.03505   1.00
H2       0.19548    0.35592    1.02029   1.00
C5       0.19700    0.29388    1.00518   1.00
C5       0.21275    0.27889    1.04448   1.00
H2       -0.02786   0.52283    0.76141   1.00
C5       -0.02412   0.58362    0.78167   1.00
H2       0.02177    0.54477    0.75922   1.00
C5       0.13163    0.54265    1.10810   1.00
H2       0.15949    0.57438    1.05975   1.00
H2       0.11207    0.55091    1.04752   1.00
C5       0.36003    0.26974    0.75747   1.00
H2       0.36289    0.26192    0.82111   1.00
H2       0.31563    0.24787    0.79834   1.00
H2       0.22898    0.30341    1.06001   1.00
H2       0.18739    0.26866    1.06341   1.00
C5       0.24083    0.24458    1.03726   1.00
H2       -0.03616   0.58703    0.81248   1.00
H2       -0.00071   0.60662    0.77631   1.00
H2       -0.04874   0.58752    0.75965   1.00
H2       0.14680    0.51538    1.11959   1.00
H2       0.14271    0.56929    1.12464   1.00
H2       0.09879    0.53975    1.11247   1.00
H2       0.37611    0.29847    0.75276   1.00
H2       0.38164    0.24453    0.75576   1.00
H2       0.33681    0.26606    0.73395   1.00
H2       0.27193    0.25606    1.03463   1.00
H2       0.23902    0.22322    1.06268   1.00
H2       0.23234    0.22904    1.00910   1.00
C5       0.79718    0.49221    1.01556   1.00
H2       0.81245    0.46493    1.02404   1.00
H2       0.77590    0.49819    1.03927   1.00
C5       0.82694    0.52572    1.01241   1.00
C5       0.83623    0.54268    1.05296   1.00
H2       0.81515    0.54934    0.99349   1.00
O3       0.64500    0.47771    0.88210   1.00
C4       0.68600    0.41458    0.91497   1.00
C3c      0.70743    0.43020    0.94621   1.00
H1       0.69225    0.44247    0.97099   1.00
C3d      0.70635    0.39823    0.88321   1.00
C3       0.74854    0.43079    0.94581   1.00
O2       0.76748    0.44214    0.97935   1.00
C3       0.74727    0.39945    0.88239   1.00
H1       0.76157    0.38781    0.85679   1.00
C2       0.76939    0.41552    0.91354   1.00
C5       0.64379    0.47616    0.84094   1.00
H2       0.61338    0.47751    0.82948   1.00
H2       0.65766    0.44887    0.82983   1.00
C5       0.66629    0.51128    0.82547   1.00
H2       0.69637    0.51053    0.83780   1.00
H2       0.65198    0.53835    0.83644   1.00
C5       0.66762    0.51109    0.78056   1.00
H2       0.63768    0.51156    0.76805   1.00
H2       0.68311    0.48474    0.76961   1.00
C5       0.68945    0.54743    0.76567   1.00
C5       0.67605    0.34575    0.85569   1.00
C5       0.77570    0.48255    0.97781   1.00
H2       0.65588    0.34224    0.88087   1.00
H2       0.70212    0.32684    0.86049   1.00
H2       0.74800    0.49956    0.97591   1.00
H2       0.79395    0.49062    0.95197   1.00
H2       0.85530    0.51524    1.00014   1.00
H2       0.60747    0.29793    0.84465   1.00
H2       0.65263    0.27114    0.83712   1.00
C2       0.56105    0.41591    0.91248   1.00
C3       0.58097    0.38495    0.93096   1.00
O2       0.56174    0.35065    0.93959   1.00
C3       0.58326    0.44698    0.89677   1.00
H1       0.56885    0.47160    0.88334   1.00
C3a      0.62213    0.38517    0.93244   1.00
H1       0.63702    0.36020    0.94470   1.00
C3b      0.62422    0.44651    0.89718   1.00
C4       0.64400    0.41542    0.91503   1.00
O3       0.68667    0.38518    0.85046   1.00
C5       0.55220    0.34935    0.97962   1.00
H2       0.57891    0.35115    0.99821   1.00
C5       0.53174    0.31052    0.98689   1.00
H2       0.53226    0.37377    0.98764   1.00
H2       0.55432    0.28726    0.98916   1.00
H2       0.51407    0.30373    0.96046   1.00
C5       0.50582    0.31097    1.02357   1.00
H2       0.52324    0.32079    1.04910   1.00
C5       0.48953    0.26998    1.03209   1.00
H2       0.48007    0.33065    1.01972   1.00
C5       0.65517    0.33248    0.81872   1.00
H2       0.67715    0.32957    0.79495   1.00
H2       0.63452    0.35592    0.80971   1.00
C5       0.63300    0.29388    0.82482   1.00
C5       0.61725    0.27889    0.78552   1.00
H2       0.85786    0.52283    1.06859   1.00
C5       0.85412    0.58362    1.04833   1.00
H2       0.80823    0.54477    1.07078   1.00
C5       0.69837    0.54265    0.72190   1.00
H2       0.67051    0.57438    0.77025   1.00
H2       0.71793    0.55091    0.78248   1.00
C5       0.46997    0.26974    1.07253   1.00
H2       0.46711    0.26192    1.00889   1.00
H2       0.51437    0.24787    1.03166   1.00
H2       0.60102    0.30341    0.76999   1.00
H2       0.64261    0.26866    0.76659   1.00
C5       0.58917    0.24458    0.79274   1.00
H2       0.86616    0.58703    1.01752   1.00
H2       0.83071    0.60662    1.05369   1.00
H2       0.87874    0.58752    1.07035   1.00
H2       0.68320    0.51538    0.71041   1.00
H2       0.68729    0.56929    0.70536   1.00
H2       0.73121    0.53975    0.71753   1.00
H2       0.45389    0.29847    1.07724   1.00
H2       0.44836    0.24453    1.07424   1.00
H2       0.49319    0.26606    1.09605   1.00
H2       0.55807    0.25606    0.79537   1.00
H2       0.59098    0.22322    0.76732   1.00
H2       0.59766    0.22904    0.82090   1.00
C5       0.31444    0.03282    0.99221   1.00
H2       0.30596    0.01755    0.96493   1.00
H2       0.29073    0.05410    0.99819   1.00
C5       0.31759    0.00306    1.02572   1.00
C5       0.27704    -0.00623   1.04268   1.00
H2       0.33651    0.01485    1.04934   1.00
O3       0.44790    0.18500    0.97771   1.00
C4       0.41503    0.14400    0.91458   1.00
C3c      0.38379    0.12257    0.93020   1.00
H1       0.35901    0.13775    0.94247   1.00
C3d      0.44679    0.12365    0.89823   1.00
C3       0.38419    0.08146    0.93079   1.00
O2       0.35065    0.06252    0.94214   1.00
C3       0.44761    0.08273    0.89945   1.00
H1       0.47321    0.06843    0.88781   1.00
C2       0.41646    0.06061    0.91552   1.00
C5       0.48906    0.18621    0.97616   1.00
H2       0.50052    0.21662    0.97751   1.00
H2       0.50017    0.17234    0.94887   1.00
C5       0.50453    0.16371    1.01128   1.00
H2       0.49220    0.13363    1.01053   1.00
H2       0.49356    0.17802    1.03835   1.00
C5       0.54944    0.16238    1.01109   1.00
H2       0.56195    0.19232    1.01156   1.00
H2       0.56039    0.14689    0.98474   1.00
C5       0.56433    0.14055    1.04743   1.00
C5       0.47431    0.15395    0.84575   1.00
C5       0.35219    0.05430    0.98255   1.00
H2       0.44913    0.17412    0.84224   1.00
H2       0.46951    0.12788    0.82684   1.00
H2       0.35409    0.08200    0.99956   1.00
H2       0.37803    0.03605    0.99062   1.00
H2       0.32986    -0.02530   1.01524   1.00
H2       0.48535    0.22253    0.79793   1.00
H2       0.49288    0.17737    0.77114   1.00
C2       0.41752    0.26895    0.91591   1.00
C3       0.39904    0.24903    0.88495   1.00
O2       0.39041    0.26826    0.85065   1.00
C3       0.43323    0.24674    0.94698   1.00
H1       0.44666    0.26115    0.97160   1.00
C3a      0.39756    0.20787    0.88517   1.00
H1       0.38530    0.19298    0.86020   1.00
C3b      0.43282    0.20578    0.94651   1.00
C4       0.41497    0.18600    0.91542   1.00
O3       0.47954    0.14333    0.88518   1.00
C5       0.35038    0.27780    0.84935   1.00
H2       0.33179    0.25109    0.85115   1.00
C5       0.34311    0.29826    0.81052   1.00
H2       0.34236    0.29774    0.87377   1.00
H2       0.34084    0.27568    0.78726   1.00
H2       0.36954    0.31593    0.80373   1.00
C5       0.30643    0.32418    0.81097   1.00
H2       0.28090    0.30676    0.82079   1.00
C5       0.29791    0.34047    0.76998   1.00
H2       0.31028    0.34993    0.83065   1.00
C5       0.51128    0.17483    0.83248   1.00
H2       0.53505    0.15285    0.82957   1.00
H2       0.52029    0.19548    0.85592   1.00
C5       0.50518    0.19700    0.79388   1.00
C5       0.54448    0.21275    0.77889   1.00
H2       0.26141    -0.02786   1.02283   1.00
C5       0.28167    -0.02412   1.08362   1.00
H2       0.25922    0.02177    1.04477   1.00
C5       0.60810    0.13163    1.04265   1.00
H2       0.55975    0.15949    1.07438   1.00
H2       0.54752    0.11207    1.05091   1.00
C5       0.25747    0.36003    0.76974   1.00
H2       0.32111    0.36289    0.76192   1.00
H2       0.29834    0.31563    0.74787   1.00
H2       0.56001    0.22898    0.80341   1.00
H2       0.56341    0.18739    0.76866   1.00
C5       0.53726    0.24083    0.74458   1.00
H2       0.31248    -0.03616   1.08703   1.00
H2       0.27631    -0.00071   1.10662   1.00
H2       0.25965    -0.04874   1.08752   1.00
H2       0.61959    0.14680    1.01538   1.00
H2       0.62464    0.14271    1.06929   1.00
H2       0.61247    0.09879    1.03975   1.00
H2       0.25276    0.37611    0.79847   1.00
H2       0.25576    0.38164    0.74453   1.00
H2       0.23395    0.33681    0.76606   1.00
H2       0.53463    0.27193    0.75606   1.00
H2       0.56268    0.23902    0.72322   1.00
H2       0.50910    0.23234    0.72904   1.00
C5       0.49221    0.31444    0.53282   1.00
H2       0.46493    0.30596    0.51755   1.00
H2       0.49819    0.29073    0.55410   1.00
C5       0.52572    0.31759    0.50306   1.00
C5       0.54268    0.27704    0.49377   1.00
H2       0.54934    0.33651    0.51485   1.00
O3       0.47771    0.44790    0.68500   1.00
C4       0.41458    0.41503    0.64400   1.00
C3c      0.43020    0.38379    0.62257   1.00
H1       0.44247    0.35901    0.63775   1.00
C3d      0.39823    0.44679    0.62365   1.00
C3       0.43079    0.38419    0.58146   1.00
O2       0.44214    0.35065    0.56252   1.00
C3       0.39945    0.44761    0.58273   1.00
H1       0.38781    0.47321    0.56843   1.00
C2       0.41552    0.41646    0.56061   1.00
C5       0.47616    0.48906    0.68621   1.00
H2       0.47751    0.50052    0.71662   1.00
H2       0.44887    0.50017    0.67234   1.00
C5       0.51128    0.50453    0.66371   1.00
H2       0.51053    0.49220    0.63363   1.00
H2       0.53835    0.49356    0.67802   1.00
C5       0.51109    0.54944    0.66238   1.00
H2       0.51156    0.56195    0.69232   1.00
H2       0.48474    0.56039    0.64689   1.00
C5       0.54743    0.56433    0.64055   1.00
C5       0.34575    0.47431    0.65395   1.00
C5       0.48255    0.35219    0.55430   1.00
H2       0.34224    0.44913    0.67412   1.00
H2       0.32684    0.46951    0.62788   1.00
H2       0.49956    0.35409    0.58200   1.00
H2       0.49062    0.37803    0.53605   1.00
H2       0.51524    0.32986    0.47470   1.00
H2       0.29793    0.48535    0.72253   1.00
H2       0.27114    0.49288    0.67737   1.00
C2       0.41591    0.41752    0.76895   1.00
C3       0.38495    0.39904    0.74903   1.00
O2       0.35065    0.39041    0.76826   1.00
C3       0.44698    0.43323    0.74674   1.00
H1       0.47160    0.44666    0.76115   1.00
C3a      0.38517    0.39756    0.70787   1.00
H1       0.36020    0.38530    0.69298   1.00
C3b      0.44651    0.43282    0.70578   1.00
C4       0.41542    0.41497    0.68600   1.00
O3       0.38518    0.47954    0.64333   1.00
C5       0.34935    0.35038    0.77780   1.00
H2       0.35115    0.33179    0.75109   1.00
C5       0.31052    0.34311    0.79826   1.00
H2       0.37377    0.34236    0.79774   1.00
H2       0.28726    0.34084    0.77568   1.00
H2       0.30373    0.36954    0.81593   1.00
C5       0.31097    0.30643    0.82418   1.00
H2       0.32079    0.28090    0.80676   1.00
C5       0.26998    0.29791    0.84047   1.00
H2       0.33065    0.31028    0.84993   1.00
C5       0.33248    0.51128    0.67483   1.00
H2       0.32957    0.53505    0.65285   1.00
H2       0.35592    0.52029    0.69548   1.00
C5       0.29388    0.50518    0.69700   1.00
C5       0.27889    0.54448    0.71275   1.00
H2       0.52283    0.26141    0.47214   1.00
C5       0.58362    0.28167    0.47588   1.00
H2       0.54477    0.25922    0.52177   1.00
C5       0.54265    0.60810    0.63163   1.00
H2       0.57438    0.55975    0.65949   1.00
H2       0.55091    0.54752    0.61207   1.00
C5       0.26974    0.25747    0.86003   1.00
H2       0.26192    0.32111    0.86289   1.00
H2       0.24787    0.29834    0.81563   1.00
H2       0.30341    0.56001    0.72898   1.00
H2       0.26866    0.56341    0.68739   1.00
C5       0.24458    0.53726    0.74083   1.00
H2       0.58703    0.31248    0.46384   1.00
H2       0.60662    0.27631    0.49929   1.00
H2       0.58752    0.25965    0.45126   1.00
H2       0.51538    0.61959    0.64680   1.00
H2       0.56929    0.62464    0.64271   1.00
H2       0.53975    0.61247    0.59879   1.00
H2       0.29847    0.25276    0.87611   1.00
H2       0.24453    0.25576    0.88164   1.00
H2       0.26606    0.23395    0.83681   1.00
H2       0.25606    0.53463    0.77193   1.00
H2       0.22322    0.56268    0.73902   1.00
H2       0.22904    0.50910    0.73234   1.00
C5       0.49221    1.01556    0.79718   1.00
H2       0.46493    1.02404    0.81245   1.00
H2       0.49819    1.03927    0.77590   1.00
C5       0.52572    1.01241    0.82694   1.00
C5       0.54268    1.05296    0.83623   1.00
H2       0.54934    0.99349    0.81515   1.00
O3       0.47771    0.88210    0.64500   1.00
C4       0.41458    0.91497    0.68600   1.00
C3c      0.43020    0.94621    0.70743   1.00
H1       0.44247    0.97099    0.69225   1.00
C3d      0.39823    0.88321    0.70635   1.00
C3       0.43079    0.94581    0.74854   1.00
O2       0.44214    0.97935    0.76748   1.00
C3       0.39945    0.88239    0.74727   1.00
H1       0.38781    0.85679    0.76157   1.00
C2       0.41552    0.91354    0.76939   1.00
C5       0.47616    0.84094    0.64379   1.00
H2       0.47751    0.82948    0.61338   1.00
H2       0.44887    0.82983    0.65766   1.00
C5       0.51128    0.82547    0.66629   1.00
H2       0.51053    0.83780    0.69637   1.00
H2       0.53835    0.83644    0.65198   1.00
C5       0.51109    0.78056    0.66762   1.00
H2       0.51156    0.76805    0.63768   1.00
H2       0.48474    0.76961    0.68311   1.00
C5       0.54743    0.76567    0.68945   1.00
C5       0.34575    0.85569    0.67605   1.00
C5       0.48255    0.97781    0.77570   1.00
H2       0.34224    0.88087    0.65588   1.00
H2       0.32684    0.86049    0.70212   1.00
H2       0.49956    0.97591    0.74800   1.00
H2       0.49062    0.95197    0.79395   1.00
H2       0.51524    1.00014    0.85530   1.00
H2       0.29793    0.84465    0.60747   1.00
H2       0.27114    0.83712    0.65263   1.00
C2       0.41591    0.91248    0.56105   1.00
C3       0.38495    0.93096    0.58097   1.00
O2       0.35065    0.93959    0.56174   1.00
C3       0.44698    0.89677    0.58326   1.00
H1       0.47160    0.88334    0.56885   1.00
C3a      0.38517    0.93244    0.62213   1.00
H1       0.36020    0.94470    0.63702   1.00
C3b      0.44651    0.89718    0.62422   1.00
C4       0.41542    0.91503    0.64400   1.00
O3       0.38518    0.85046    0.68667   1.00
C5       0.34935    0.97962    0.55220   1.00
H2       0.35115    0.99821    0.57891   1.00
C5       0.31052    0.98689    0.53174   1.00
H2       0.37377    0.98764    0.53226   1.00
H2       0.28726    0.98916    0.55432   1.00
H2       0.30373    0.96046    0.51407   1.00
C5       0.31097    1.02357    0.50582   1.00
H2       0.32079    1.04910    0.52324   1.00
C5       0.26998    1.03209    0.48953   1.00
H2       0.33065    1.01972    0.48007   1.00
C5       0.33248    0.81872    0.65517   1.00
H2       0.32957    0.79495    0.67715   1.00
H2       0.35592    0.80971    0.63452   1.00
C5       0.29388    0.82482    0.63300   1.00
C5       0.27889    0.78552    0.61725   1.00
H2       0.52283    1.06859    0.85786   1.00
C5       0.58362    1.04833    0.85412   1.00
H2       0.54477    1.07078    0.80823   1.00
C5       0.54265    0.72190    0.69837   1.00
H2       0.57438    0.77025    0.67051   1.00
H2       0.55091    0.78248    0.71793   1.00
C5       0.26974    1.07253    0.46997   1.00
H2       0.26192    1.00889    0.46711   1.00
H2       0.24787    1.03166    0.51437   1.00
H2       0.30341    0.76999    0.60102   1.00
H2       0.26866    0.76659    0.64261   1.00
C5       0.24458    0.79274    0.58917   1.00
H2       0.58703    1.01752    0.86616   1.00
H2       0.60662    1.05369    0.83071   1.00
H2       0.58752    1.07035    0.87874   1.00
H2       0.51538    0.71041    0.68320   1.00
H2       0.56929    0.70536    0.68729   1.00
H2       0.53975    0.71753    0.73121   1.00
H2       0.29847    1.07724    0.45389   1.00
H2       0.24453    1.07424    0.44836   1.00
H2       0.26606    1.09605    0.49319   1.00
H2       0.25606    0.79537    0.55807   1.00
H2       0.22322    0.76732    0.59098   1.00
H2       0.22904    0.82090    0.59766   1.00
C5       0.51556    1.29718    0.49221   1.00
H2       0.52404    1.31245    0.46493   1.00
H2       0.53927    1.27590    0.49819   1.00
C5       0.51241    1.32694    0.52572   1.00
C5       0.55296    1.33623    0.54268   1.00
H2       0.49349    1.31515    0.54934   1.00
O3       0.38210    1.14500    0.47771   1.00
C4       0.41497    1.18600    0.41458   1.00
C3c      0.44621    1.20743    0.43020   1.00
H1       0.47099    1.19225    0.44247   1.00
C3d      0.38321    1.20635    0.39823   1.00
C3       0.44581    1.24854    0.43079   1.00
O2       0.47935    1.26748    0.44214   1.00
C3       0.38239    1.24727    0.39945   1.00
H1       0.35679    1.26157    0.38781   1.00
C2       0.41354    1.26939    0.41552   1.00
C5       0.34094    1.14379    0.47616   1.00
H2       0.32948    1.11338    0.47751   1.00
H2       0.32983    1.15766    0.44887   1.00
C5       0.32547    1.16629    0.51128   1.00
H2       0.33780    1.19637    0.51053   1.00
H2       0.33644    1.15198    0.53835   1.00
C5       0.28056    1.16762    0.51109   1.00
H2       0.26805    1.13768    0.51156   1.00
H2       0.26961    1.18311    0.48474   1.00
C5       0.26567    1.18945    0.54743   1.00
C5       0.35569    1.17605    0.34575   1.00
C5       0.47781    1.27570    0.48255   1.00
H2       0.38087    1.15588    0.34224   1.00
H2       0.36049    1.20212    0.32684   1.00
H2       0.47591    1.24800    0.49956   1.00
H2       0.45197    1.29395    0.49062   1.00
H2       0.50014    1.35530    0.51524   1.00
H2       0.34465    1.10747    0.29793   1.00
H2       0.33712    1.15263    0.27114   1.00
C2       0.41248    1.06105    0.41591   1.00
C3       0.43096    1.08097    0.38495   1.00
O2       0.43959    1.06174    0.35065   1.00
C3       0.39677    1.08326    0.44698   1.00
H1       0.38334    1.06885    0.47160   1.00
C3a      0.43244    1.12213    0.38517   1.00
H1       0.44470    1.13702    0.36020   1.00
C3b      0.39718    1.12422    0.44651   1.00
C4       0.41503    1.14400    0.41542   1.00
O3       0.35046    1.18667    0.38518   1.00
C5       0.47962    1.05220    0.34935   1.00
H2       0.49821    1.07891    0.35115   1.00
C5       0.48689    1.03174    0.31052   1.00
H2       0.48764    1.03226    0.37377   1.00
H2       0.48916    1.05432    0.28726   1.00
H2       0.46046    1.01407    0.30373   1.00
C5       0.52357    1.00582    0.31097   1.00
H2       0.54910    1.02324    0.32079   1.00
C5       0.53209    0.98953    0.26998   1.00
H2       0.51972    0.98007    0.33065   1.00
C5       0.31872    1.15517    0.33248   1.00
H2       0.29495    1.17715    0.32957   1.00
H2       0.30971    1.13452    0.35592   1.00
C5       0.32482    1.13300    0.29388   1.00
C5       0.28552    1.11725    0.27889   1.00
H2       0.56859    1.35786    0.52283   1.00
C5       0.54833    1.35412    0.58362   1.00
H2       0.57078    1.30823    0.54477   1.00
C5       0.22190    1.19837    0.54265   1.00
H2       0.27025    1.17051    0.57438   1.00
H2       0.28248    1.21793    0.55091   1.00
C5       0.57253    0.96997    0.26974   1.00
H2       0.50889    0.96711    0.26192   1.00
H2       0.53166    1.01437    0.24787   1.00
H2       0.26999    1.10102    0.30341   1.00
H2       0.26659    1.14261    0.26866   1.00
C5       0.29274    1.08917    0.24458   1.00
H2       0.51752    1.36616    0.58703   1.00
H2       0.55369    1.33071    0.60662   1.00
H2       0.57035    1.37874    0.58752   1.00
H2       0.21041    1.18320    0.51538   1.00
H2       0.20536    1.18729    0.56929   1.00
H2       0.21753    1.23121    0.53975   1.00
H2       0.57724    0.95389    0.29847   1.00
H2       0.57424    0.94836    0.24453   1.00
H2       0.59605    0.99319    0.26606   1.00
H2       0.29537    1.05807    0.25606   1.00
H2       0.26732    1.09098    0.22322   1.00
H2       0.32090    1.09766    0.22904   1.00
C5       0.03282    0.99221    0.31444   1.00
H2       0.01755    0.96493    0.30596   1.00
H2       0.05410    0.99819    0.29073   1.00
C5       0.00306    1.02572    0.31759   1.00
C5       -0.00623   1.04268    0.27704   1.00
H2       0.01485    1.04934    0.33651   1.00
O3       0.18500    0.97771    0.44790   1.00
C4       0.14400    0.91458    0.41503   1.00
C3c      0.12257    0.93020    0.38379   1.00
H1       0.13775    0.94247    0.35901   1.00
C3d      0.12365    0.89823    0.44679   1.00
C3       0.08146    0.93079    0.38419   1.00
O2       0.06252    0.94214    0.35065   1.00
C3       0.08273    0.89945    0.44761   1.00
H1       0.06843    0.88781    0.47321   1.00
C2       0.06061    0.91552    0.41646   1.00
C5       0.18621    0.97616    0.48906   1.00
H2       0.21662    0.97751    0.50052   1.00
H2       0.17234    0.94887    0.50017   1.00
C5       0.16371    1.01128    0.50453   1.00
H2       0.13363    1.01053    0.49220   1.00
H2       0.17802    1.03835    0.49356   1.00
C5       0.16238    1.01109    0.54944   1.00
H2       0.19232    1.01156    0.56195   1.00
H2       0.14689    0.98474    0.56039   1.00
C5       0.14055    1.04743    0.56433   1.00
C5       0.15395    0.84575    0.47431   1.00
C5       0.05430    0.98255    0.35219   1.00
H2       0.17412    0.84224    0.44913   1.00
H2       0.12788    0.82684    0.46951   1.00
H2       0.08200    0.99956    0.35409   1.00
H2       0.03605    0.99062    0.37803   1.00
H2       -0.02530   1.01524    0.32986   1.00
H2       0.22253    0.79793    0.48535   1.00
H2       0.17737    0.77114    0.49288   1.00
C2       0.26895    0.91591    0.41752   1.00
C3       0.24903    0.88495    0.39904   1.00
O2       0.26826    0.85065    0.39041   1.00
C3       0.24674    0.94698    0.43323   1.00
H1       0.26115    0.97160    0.44666   1.00
C3a      0.20787    0.88517    0.39756   1.00
H1       0.19298    0.86020    0.38530   1.00
C3b      0.20578    0.94651    0.43282   1.00
C4       0.18600    0.91542    0.41497   1.00
O3       0.14333    0.88518    0.47954   1.00
C5       0.27780    0.84935    0.35038   1.00
H2       0.25109    0.85115    0.33179   1.00
C5       0.29826    0.81052    0.34311   1.00
H2       0.29774    0.87377    0.34236   1.00
H2       0.27568    0.78726    0.34084   1.00
H2       0.31593    0.80373    0.36954   1.00
C5       0.32418    0.81097    0.30643   1.00
H2       0.30676    0.82079    0.28090   1.00
C5       0.34047    0.76998    0.29791   1.00
H2       0.34993    0.83065    0.31028   1.00
C5       0.17483    0.83248    0.51128   1.00
H2       0.15285    0.82957    0.53505   1.00
H2       0.19548    0.85592    0.52029   1.00
C5       0.19700    0.79388    0.50518   1.00
C5       0.21275    0.77889    0.54448   1.00
H2       -0.02786   1.02283    0.26141   1.00
C5       -0.02412   1.08362    0.28167   1.00
H2       0.02177    1.04477    0.25922   1.00
C5       0.13163    1.04265    0.60810   1.00
H2       0.15949    1.07438    0.55975   1.00
H2       0.11207    1.05091    0.54752   1.00
C5       0.36003    0.76974    0.25747   1.00
H2       0.36289    0.76192    0.32111   1.00
H2       0.31563    0.74787    0.29834   1.00
H2       0.22898    0.80341    0.56001   1.00
H2       0.18739    0.76866    0.56341   1.00
C5       0.24083    0.74458    0.53726   1.00
H2       -0.03616   1.08703    0.31248   1.00
H2       -0.00071   1.10662    0.27631   1.00
H2       -0.04874   1.08752    0.25965   1.00
H2       0.14680    1.01538    0.61959   1.00
H2       0.14271    1.06929    0.62464   1.00
H2       0.09879    1.03975    0.61247   1.00
H2       0.37611    0.79847    0.25276   1.00
H2       0.38164    0.74453    0.25576   1.00
H2       0.33681    0.76606    0.23395   1.00
H2       0.27193    0.75606    0.53463   1.00
H2       0.23902    0.72322    0.56268   1.00
H2       0.23234    0.72904    0.50910   1.00
C5       0.79718    0.99221    0.51556   1.00
H2       0.81245    0.96493    0.52404   1.00
H2       0.77590    0.99819    0.53927   1.00
C5       0.82694    1.02572    0.51241   1.00
C5       0.83623    1.04268    0.55296   1.00
H2       0.81515    1.04934    0.49349   1.00
O3       0.64500    0.97771    0.38210   1.00
C4       0.68600    0.91458    0.41497   1.00
C3c      0.70743    0.93020    0.44621   1.00
H1       0.69225    0.94247    0.47099   1.00
C3d      0.70635    0.89823    0.38321   1.00
C3       0.74854    0.93079    0.44581   1.00
O2       0.76748    0.94214    0.47935   1.00
C3       0.74727    0.89945    0.38239   1.00
H1       0.76157    0.88781    0.35679   1.00
C2       0.76939    0.91552    0.41354   1.00
C5       0.64379    0.97616    0.34094   1.00
H2       0.61338    0.97751    0.32948   1.00
H2       0.65766    0.94887    0.32983   1.00
C5       0.66629    1.01128    0.32547   1.00
H2       0.69637    1.01053    0.33780   1.00
H2       0.65198    1.03835    0.33644   1.00
C5       0.66762    1.01109    0.28056   1.00
H2       0.63768    1.01156    0.26805   1.00
H2       0.68311    0.98474    0.26961   1.00
C5       0.68945    1.04743    0.26567   1.00
C5       0.67605    0.84575    0.35569   1.00
C5       0.77570    0.98255    0.47781   1.00
H2       0.65588    0.84224    0.38087   1.00
H2       0.70212    0.82684    0.36049   1.00
H2       0.74800    0.99956    0.47591   1.00
H2       0.79395    0.99062    0.45197   1.00
H2       0.85530    1.01524    0.50014   1.00
H2       0.60747    0.79793    0.34465   1.00
H2       0.65263    0.77114    0.33712   1.00
C2       0.56105    0.91591    0.41248   1.00
C3       0.58097    0.88495    0.43096   1.00
O2       0.56174    0.85065    0.43959   1.00
C3       0.58326    0.94698    0.39677   1.00
H1       0.56885    0.97160    0.38334   1.00
C3a      0.62213    0.88517    0.43244   1.00
H1       0.63702    0.86020    0.44470   1.00
C3b      0.62422    0.94651    0.39718   1.00
C4       0.64400    0.91542    0.41503   1.00
O3       0.68667    0.88518    0.35046   1.00
C5       0.55220    0.84935    0.47962   1.00
H2       0.57891    0.85115    0.49821   1.00
C5       0.53174    0.81052    0.48689   1.00
H2       0.53226    0.87377    0.48764   1.00
H2       0.55432    0.78726    0.48916   1.00
H2       0.51407    0.80373    0.46046   1.00
C5       0.50582    0.81097    0.52357   1.00
H2       0.52324    0.82079    0.54910   1.00
C5       0.48953    0.76998    0.53209   1.00
H2       0.48007    0.83065    0.51972   1.00
C5       0.65517    0.83248    0.31872   1.00
H2       0.67715    0.82957    0.29495   1.00
H2       0.63452    0.85592    0.30971   1.00
C5       0.63300    0.79388    0.32482   1.00
C5       0.61725    0.77889    0.28552   1.00
H2       0.85786    1.02283    0.56859   1.00
C5       0.85412    1.08362    0.54833   1.00
H2       0.80823    1.04477    0.57078   1.00
C5       0.69837    1.04265    0.22190   1.00
H2       0.67051    1.07438    0.27025   1.00
H2       0.71793    1.05091    0.28248   1.00
C5       0.46997    0.76974    0.57253   1.00
H2       0.46711    0.76192    0.50889   1.00
H2       0.51437    0.74787    0.53166   1.00
H2       0.60102    0.80341    0.26999   1.00
H2       0.64261    0.76866    0.26659   1.00
C5       0.58917    0.74458    0.29274   1.00
H2       0.86616    1.08703    0.51752   1.00
H2       0.83071    1.10662    0.55369   1.00
H2       0.87874    1.08752    0.57035   1.00
H2       0.68320    1.01538    0.21041   1.00
H2       0.68729    1.06929    0.20536   1.00
H2       0.73121    1.03975    0.21753   1.00
H2       0.45389    0.79847    0.57724   1.00
H2       0.44836    0.74453    0.57424   1.00
H2       0.49319    0.76606    0.59605   1.00
H2       0.55807    0.75606    0.29537   1.00
H2       0.59098    0.72322    0.26732   1.00
H2       0.59766    0.72904    0.32090   1.00
C5       0.31444    0.53282    0.49221   1.00
H2       0.30596    0.51755    0.46493   1.00
H2       0.29073    0.55410    0.49819   1.00
C5       0.31759    0.50306    0.52572   1.00
C5       0.27704    0.49377    0.54268   1.00
H2       0.33651    0.51485    0.54934   1.00
O3       0.44790    0.68500    0.47771   1.00
C4       0.41503    0.64400    0.41458   1.00
C3c      0.38379    0.62257    0.43020   1.00
H1       0.35901    0.63775    0.44247   1.00
C3d      0.44679    0.62365    0.39823   1.00
C3       0.38419    0.58146    0.43079   1.00
O2       0.35065    0.56252    0.44214   1.00
C3       0.44761    0.58273    0.39945   1.00
H1       0.47321    0.56843    0.38781   1.00
C2       0.41646    0.56061    0.41552   1.00
C5       0.48906    0.68621    0.47616   1.00
H2       0.50052    0.71662    0.47751   1.00
H2       0.50017    0.67234    0.44887   1.00
C5       0.50453    0.66371    0.51128   1.00
H2       0.49220    0.63363    0.51053   1.00
H2       0.49356    0.67802    0.53835   1.00
C5       0.54944    0.66238    0.51109   1.00
H2       0.56195    0.69232    0.51156   1.00
H2       0.56039    0.64689    0.48474   1.00
C5       0.56433    0.64055    0.54743   1.00
C5       0.47431    0.65395    0.34575   1.00
C5       0.35219    0.55430    0.48255   1.00
H2       0.44913    0.67412    0.34224   1.00
H2       0.46951    0.62788    0.32684   1.00
H2       0.35409    0.58200    0.49956   1.00
H2       0.37803    0.53605    0.49062   1.00
H2       0.32986    0.47470    0.51524   1.00
H2       0.48535    0.72253    0.29793   1.00
H2       0.49288    0.67737    0.27114   1.00
C2       0.41752    0.76895    0.41591   1.00
C3       0.39904    0.74903    0.38495   1.00
O2       0.39041    0.76826    0.35065   1.00
C3       0.43323    0.74674    0.44698   1.00
H1       0.44666    0.76115    0.47160   1.00
C3a      0.39756    0.70787    0.38517   1.00
H1       0.38530    0.69298    0.36020   1.00
C3b      0.43282    0.70578    0.44651   1.00
C4       0.41497    0.68600    0.41542   1.00
O3       0.47954    0.64333    0.38518   1.00
C5       0.35038    0.77780    0.34935   1.00
H2       0.33179    0.75109    0.35115   1.00
C5       0.34311    0.79826    0.31052   1.00
H2       0.34236    0.79774    0.37377   1.00
H2       0.34084    0.77568    0.28726   1.00
H2       0.36954    0.81593    0.30373   1.00
C5       0.30643    0.82418    0.31097   1.00
H2       0.28090    0.80676    0.32079   1.00
C5       0.29791    0.84047    0.26998   1.00
H2       0.31028    0.84993    0.33065   1.00
C5       0.51128    0.67483    0.33248   1.00
H2       0.53505    0.65285    0.32957   1.00
H2       0.52029    0.69548    0.35592   1.00
C5       0.50518    0.69700    0.29388   1.00
C5       0.54448    0.71275    0.27889   1.00
H2       0.26141    0.47214    0.52283   1.00
C5       0.28167    0.47588    0.58362   1.00
H2       0.25922    0.52177    0.54477   1.00
C5       0.60810    0.63163    0.54265   1.00
H2       0.55975    0.65949    0.57438   1.00
H2       0.54752    0.61207    0.55091   1.00
C5       0.25747    0.86003    0.26974   1.00
H2       0.32111    0.86289    0.26192   1.00
H2       0.29834    0.81563    0.24787   1.00
H2       0.56001    0.72898    0.30341   1.00
H2       0.56341    0.68739    0.26866   1.00
C5       0.53726    0.74083    0.24458   1.00
H2       0.31248    0.46384    0.58703   1.00
H2       0.27631    0.49929    0.60662   1.00
H2       0.25965    0.45126    0.58752   1.00
H2       0.61959    0.64680    0.51538   1.00
H2       0.62464    0.64271    0.56929   1.00
H2       0.61247    0.59879    0.53975   1.00
H2       0.25276    0.87611    0.29847   1.00
H2       0.25576    0.88164    0.24453   1.00
H2       0.23395    0.83681    0.26606   1.00
H2       0.53463    0.77193    0.25606   1.00
H2       0.56268    0.73902    0.22322   1.00
H2       0.50910    0.73234    0.22904   1.00
C5       0.49221    0.81444    0.03282   1.00
H2       0.46493    0.80596    0.01755   1.00
H2       0.49819    0.79073    0.05410   1.00
C5       0.52572    0.81759    0.00306   1.00
C5       0.54268    0.77704    -0.00623   1.00
H2       0.54934    0.83651    0.01485   1.00
O3       0.47771    0.94790    0.18500   1.00
C4       0.41458    0.91503    0.14400   1.00
C3c      0.43020    0.88379    0.12257   1.00
H1       0.44247    0.85901    0.13775   1.00
C3d      0.39823    0.94679    0.12365   1.00
C3       0.43079    0.88419    0.08146   1.00
O2       0.44214    0.85065    0.06252   1.00
C3       0.39945    0.94761    0.08273   1.00
H1       0.38781    0.97321    0.06843   1.00
C2       0.41552    0.91646    0.06061   1.00
C5       0.47616    0.98906    0.18621   1.00
H2       0.47751    1.00052    0.21662   1.00
H2       0.44887    1.00017    0.17234   1.00
C5       0.51128    1.00453    0.16371   1.00
H2       0.51053    0.99220    0.13363   1.00
H2       0.53835    0.99356    0.17802   1.00
C5       0.51109    1.04944    0.16238   1.00
H2       0.51156    1.06195    0.19232   1.00
H2       0.48474    1.06039    0.14689   1.00
C5       0.54743    1.06433    0.14055   1.00
C5       0.34575    0.97431    0.15395   1.00
C5       0.48255    0.85219    0.05430   1.00
H2       0.34224    0.94913    0.17412   1.00
H2       0.32684    0.96951    0.12788   1.00
H2       0.49956    0.85409    0.08200   1.00
H2       0.49062    0.87803    0.03605   1.00
H2       0.51524    0.82986    -0.02530   1.00
H2       0.29793    0.98535    0.22253   1.00
H2       0.27114    0.99288    0.17737   1.00
C2       0.41591    0.91752    0.26895   1.00
C3       0.38495    0.89904    0.24903   1.00
O2       0.35065    0.89041    0.26826   1.00
C3       0.44698    0.93323    0.24674   1.00
H1       0.47160    0.94666    0.26115   1.00
C3a      0.38517    0.89756    0.20787   1.00
H1       0.36020    0.88530    0.19298   1.00
C3b      0.44651    0.93282    0.20578   1.00
C4       0.41542    0.91497    0.18600   1.00
O3       0.38518    0.97954    0.14333   1.00
C5       0.34935    0.85038    0.27780   1.00
H2       0.35115    0.83179    0.25109   1.00
C5       0.31052    0.84311    0.29826   1.00
H2       0.37377    0.84236    0.29774   1.00
H2       0.28726    0.84084    0.27568   1.00
H2       0.30373    0.86954    0.31593   1.00
C5       0.31097    0.80643    0.32418   1.00
H2       0.32079    0.78090    0.30676   1.00
C5       0.26998    0.79791    0.34047   1.00
H2       0.33065    0.81028    0.34993   1.00
C5       0.33248    1.01128    0.17483   1.00
H2       0.32957    1.03505    0.15285   1.00
H2       0.35592    1.02029    0.19548   1.00
C5       0.29388    1.00518    0.19700   1.00
C5       0.27889    1.04448    0.21275   1.00
H2       0.52283    0.76141    -0.02786   1.00
C5       0.58362    0.78167    -0.02412   1.00
H2       0.54477    0.75922    0.02177   1.00
C5       0.54265    1.10810    0.13163   1.00
H2       0.57438    1.05975    0.15949   1.00
H2       0.55091    1.04752    0.11207   1.00
C5       0.26974    0.75747    0.36003   1.00
H2       0.26192    0.82111    0.36289   1.00
H2       0.24787    0.79834    0.31563   1.00
H2       0.30341    1.06001    0.22898   1.00
H2       0.26866    1.06341    0.18739   1.00
C5       0.24458    1.03726    0.24083   1.00
H2       0.58703    0.81248    -0.03616   1.00
H2       0.60662    0.77631    -0.00071   1.00
H2       0.58752    0.75965    -0.04874   1.00
H2       0.51538    1.11959    0.14680   1.00
H2       0.56929    1.12464    0.14271   1.00
H2       0.53975    1.11247    0.09879   1.00
H2       0.29847    0.75276    0.37611   1.00
H2       0.24453    0.75576    0.38164   1.00
H2       0.26606    0.73395    0.33681   1.00
H2       0.25606    1.03463    0.27193   1.00
H2       0.22322    1.06268    0.23902   1.00
H2       0.22904    1.00910    0.23234   1.00
C5       0.99221    0.51556    0.79718   1.00
H2       0.96493    0.52404    0.81245   1.00
H2       0.99819    0.53927    0.77590   1.00
C5       1.02572    0.51241    0.82694   1.00
C5       1.04268    0.55296    0.83623   1.00
H2       1.04934    0.49349    0.81515   1.00
O3       0.97771    0.38210    0.64500   1.00
C4       0.91458    0.41497    0.68600   1.00
C3c      0.93020    0.44621    0.70743   1.00
H1       0.94247    0.47099    0.69225   1.00
C3d      0.89823    0.38321    0.70635   1.00
C3       0.93079    0.44581    0.74854   1.00
O2       0.94214    0.47935    0.76748   1.00
C3       0.89945    0.38239    0.74727   1.00
H1       0.88781    0.35679    0.76157   1.00
C2       0.91552    0.41354    0.76939   1.00
C5       0.97616    0.34094    0.64379   1.00
H2       0.97751    0.32948    0.61338   1.00
H2       0.94887    0.32983    0.65766   1.00
C5       1.01128    0.32547    0.66629   1.00
H2       1.01053    0.33780    0.69637   1.00
H2       1.03835    0.33644    0.65198   1.00
C5       1.01109    0.28056    0.66762   1.00
H2       1.01156    0.26805    0.63768   1.00
H2       0.98474    0.26961    0.68311   1.00
C5       1.04743    0.26567    0.68945   1.00
C5       0.84575    0.35569    0.67605   1.00
C5       0.98255    0.47781    0.77570   1.00
H2       0.84224    0.38087    0.65588   1.00
H2       0.82684    0.36049    0.70212   1.00
H2       0.99956    0.47591    0.74800   1.00
H2       0.99062    0.45197    0.79395   1.00
H2       1.01524    0.50014    0.85530   1.00
H2       0.79793    0.34465    0.60747   1.00
H2       0.77114    0.33712    0.65263   1.00
C2       0.91591    0.41248    0.56105   1.00
C3       0.88495    0.43096    0.58097   1.00
O2       0.85065    0.43959    0.56174   1.00
C3       0.94698    0.39677    0.58326   1.00
H1       0.97160    0.38334    0.56885   1.00
C3a      0.88517    0.43244    0.62213   1.00
H1       0.86020    0.44470    0.63702   1.00
C3b      0.94651    0.39718    0.62422   1.00
C4       0.91542    0.41503    0.64400   1.00
O3       0.88518    0.35046    0.68667   1.00
C5       0.84935    0.47962    0.55220   1.00
H2       0.85115    0.49821    0.57891   1.00
C5       0.81052    0.48689    0.53174   1.00
H2       0.87377    0.48764    0.53226   1.00
H2       0.78726    0.48916    0.55432   1.00
H2       0.80373    0.46046    0.51407   1.00
C5       0.81097    0.52357    0.50582   1.00
H2       0.82079    0.54910    0.52324   1.00
C5       0.76998    0.53209    0.48953   1.00
H2       0.83065    0.51972    0.48007   1.00
C5       0.83248    0.31872    0.65517   1.00
H2       0.82957    0.29495    0.67715   1.00
H2       0.85592    0.30971    0.63452   1.00
C5       0.79388    0.32482    0.63300   1.00
C5       0.77889    0.28552    0.61725   1.00
H2       1.02283    0.56859    0.85786   1.00
C5       1.08362    0.54833    0.85412   1.00
H2       1.04477    0.57078    0.80823   1.00
C5       1.04265    0.22190    0.69837   1.00
H2       1.07438    0.27025    0.67051   1.00
H2       1.05091    0.28248    0.71793   1.00
C5       0.76974    0.57253    0.46997   1.00
H2       0.76192    0.50889    0.46711   1.00
H2       0.74787    0.53166    0.51437   1.00
H2       0.80341    0.26999    0.60102   1.00
H2       0.76866    0.26659    0.64261   1.00
C5       0.74458    0.29274    0.58917   1.00
H2       1.08703    0.51752    0.86616   1.00
H2       1.10662    0.55369    0.83071   1.00
H2       1.08752    0.57035    0.87874   1.00
H2       1.01538    0.21041    0.68320   1.00
H2       1.06929    0.20536    0.68729   1.00
H2       1.03975    0.21753    0.73121   1.00
H2       0.79847    0.57724    0.45389   1.00
H2       0.74453    0.57424    0.44836   1.00
H2       0.76606    0.59605    0.49319   1.00
H2       0.75606    0.29537    0.55807   1.00
H2       0.72322    0.26732    0.59098   1.00
H2       0.72904    0.32090    0.59766   1.00
C5       1.01556    0.79718    0.49221   1.00
H2       1.02404    0.81245    0.46493   1.00
H2       1.03927    0.77590    0.49819   1.00
C5       1.01241    0.82694    0.52572   1.00
C5       1.05296    0.83623    0.54268   1.00
H2       0.99349    0.81515    0.54934   1.00
O3       0.88210    0.64500    0.47771   1.00
C4       0.91497    0.68600    0.41458   1.00
C3c      0.94621    0.70743    0.43020   1.00
H1       0.97099    0.69225    0.44247   1.00
C3d      0.88321    0.70635    0.39823   1.00
C3       0.94581    0.74854    0.43079   1.00
O2       0.97935    0.76748    0.44214   1.00
C3       0.88239    0.74727    0.39945   1.00
H1       0.85679    0.76157    0.38781   1.00
C2       0.91354    0.76939    0.41552   1.00
C5       0.84094    0.64379    0.47616   1.00
H2       0.82948    0.61338    0.47751   1.00
H2       0.82983    0.65766    0.44887   1.00
C5       0.82547    0.66629    0.51128   1.00
H2       0.83780    0.69637    0.51053   1.00
H2       0.83644    0.65198    0.53835   1.00
C5       0.78056    0.66762    0.51109   1.00
H2       0.76805    0.63768    0.51156   1.00
H2       0.76961    0.68311    0.48474   1.00
C5       0.76567    0.68945    0.54743   1.00
C5       0.85569    0.67605    0.34575   1.00
C5       0.97781    0.77570    0.48255   1.00
H2       0.88087    0.65588    0.34224   1.00
H2       0.86049    0.70212    0.32684   1.00
H2       0.97591    0.74800    0.49956   1.00
H2       0.95197    0.79395    0.49062   1.00
H2       1.00014    0.85530    0.51524   1.00
H2       0.84465    0.60747    0.29793   1.00
H2       0.83712    0.65263    0.27114   1.00
C2       0.91248    0.56105    0.41591   1.00
C3       0.93096    0.58097    0.38495   1.00
O2       0.93959    0.56174    0.35065   1.00
C3       0.89677    0.58326    0.44698   1.00
H1       0.88334    0.56885    0.47160   1.00
C3a      0.93244    0.62213    0.38517   1.00
H1       0.94470    0.63702    0.36020   1.00
C3b      0.89718    0.62422    0.44651   1.00
C4       0.91503    0.64400    0.41542   1.00
O3       0.85046    0.68667    0.38518   1.00
C5       0.97962    0.55220    0.34935   1.00
H2       0.99821    0.57891    0.35115   1.00
C5       0.98689    0.53174    0.31052   1.00
H2       0.98764    0.53226    0.37377   1.00
H2       0.98916    0.55432    0.28726   1.00
H2       0.96046    0.51407    0.30373   1.00
C5       1.02357    0.50582    0.31097   1.00
H2       1.04910    0.52324    0.32079   1.00
C5       1.03209    0.48953    0.26998   1.00
H2       1.01972    0.48007    0.33065   1.00
C5       0.81872    0.65517    0.33248   1.00
H2       0.79495    0.67715    0.32957   1.00
H2       0.80971    0.63452    0.35592   1.00
C5       0.82482    0.63300    0.29388   1.00
C5       0.78552    0.61725    0.27889   1.00
H2       1.06859    0.85786    0.52283   1.00
C5       1.04833    0.85412    0.58362   1.00
H2       1.07078    0.80823    0.54477   1.00
C5       0.72190    0.69837    0.54265   1.00
H2       0.77025    0.67051    0.57438   1.00
H2       0.78248    0.71793    0.55091   1.00
C5       1.07253    0.46997    0.26974   1.00
H2       1.00889    0.46711    0.26192   1.00
H2       1.03166    0.51437    0.24787   1.00
H2       0.76999    0.60102    0.30341   1.00
H2       0.76659    0.64261    0.26866   1.00
C5       0.79274    0.58917    0.24458   1.00
H2       1.01752    0.86616    0.58703   1.00
H2       1.05369    0.83071    0.60662   1.00
H2       1.07035    0.87874    0.58752   1.00
H2       0.71041    0.68320    0.51538   1.00
H2       0.70536    0.68729    0.56929   1.00
H2       0.71753    0.73121    0.53975   1.00
H2       1.07724    0.45389    0.29847   1.00
H2       1.07424    0.44836    0.24453   1.00
H2       1.09605    0.49319    0.26606   1.00
H2       0.79537    0.55807    0.25606   1.00
H2       0.76732    0.59098    0.22322   1.00
H2       0.82090    0.59766    0.22904   1.00
C5       0.53282    0.49221    0.31444   1.00
H2       0.51755    0.46493    0.30596   1.00
H2       0.55410    0.49819    0.29073   1.00
C5       0.50306    0.52572    0.31759   1.00
C5       0.49377    0.54268    0.27704   1.00
H2       0.51485    0.54934    0.33651   1.00
O3       0.68500    0.47771    0.44790   1.00
C4       0.64400    0.41458    0.41503   1.00
C3c      0.62257    0.43020    0.38379   1.00
H1       0.63775    0.44247    0.35901   1.00
C3d      0.62365    0.39823    0.44679   1.00
C3       0.58146    0.43079    0.38419   1.00
O2       0.56252    0.44214    0.35065   1.00
C3       0.58273    0.39945    0.44761   1.00
H1       0.56843    0.38781    0.47321   1.00
C2       0.56061    0.41552    0.41646   1.00
C5       0.68621    0.47616    0.48906   1.00
H2       0.71662    0.47751    0.50052   1.00
H2       0.67234    0.44887    0.50017   1.00
C5       0.66371    0.51128    0.50453   1.00
H2       0.63363    0.51053    0.49220   1.00
H2       0.67802    0.53835    0.49356   1.00
C5       0.66238    0.51109    0.54944   1.00
H2       0.69232    0.51156    0.56195   1.00
H2       0.64689    0.48474    0.56039   1.00
C5       0.64055    0.54743    0.56433   1.00
C5       0.65395    0.34575    0.47431   1.00
C5       0.55430    0.48255    0.35219   1.00
H2       0.67412    0.34224    0.44913   1.00
H2       0.62788    0.32684    0.46951   1.00
H2       0.58200    0.49956    0.35409   1.00
H2       0.53605    0.49062    0.37803   1.00
H2       0.47470    0.51524    0.32986   1.00
H2       0.72253    0.29793    0.48535   1.00
H2       0.67737    0.27114    0.49288   1.00
C2       0.76895    0.41591    0.41752   1.00
C3       0.74903    0.38495    0.39904   1.00
O2       0.76826    0.35065    0.39041   1.00
C3       0.74674    0.44698    0.43323   1.00
H1       0.76115    0.47160    0.44666   1.00
C3a      0.70787    0.38517    0.39756   1.00
H1       0.69298    0.36020    0.38530   1.00
C3b      0.70578    0.44651    0.43282   1.00
C4       0.68600    0.41542    0.41497   1.00
O3       0.64333    0.38518    0.47954   1.00
C5       0.77780    0.34935    0.35038   1.00
H2       0.75109    0.35115    0.33179   1.00
C5       0.79826    0.31052    0.34311   1.00
H2       0.79774    0.37377    0.34236   1.00
H2       0.77568    0.28726    0.34084   1.00
H2       0.81593    0.30373    0.36954   1.00
C5       0.82418    0.31097    0.30643   1.00
H2       0.80676    0.32079    0.28090   1.00
C5       0.84047    0.26998    0.29791   1.00
H2       0.84993    0.33065    0.31028   1.00
C5       0.67483    0.33248    0.51128   1.00
H2       0.65285    0.32957    0.53505   1.00
H2       0.69548    0.35592    0.52029   1.00
C5       0.69700    0.29388    0.50518   1.00
C5       0.71275    0.27889    0.54448   1.00
H2       0.47214    0.52283    0.26141   1.00
C5       0.47588    0.58362    0.28167   1.00
H2       0.52177    0.54477    0.25922   1.00
C5       0.63163    0.54265    0.60810   1.00
H2       0.65949    0.57438    0.55975   1.00
H2       0.61207    0.55091    0.54752   1.00
C5       0.86003    0.26974    0.25747   1.00
H2       0.86289    0.26192    0.32111   1.00
H2       0.81563    0.24787    0.29834   1.00
H2       0.72898    0.30341    0.56001   1.00
H2       0.68739    0.26866    0.56341   1.00
C5       0.74083    0.24458    0.53726   1.00
H2       0.46384    0.58703    0.31248   1.00
H2       0.49929    0.60662    0.27631   1.00
H2       0.45126    0.58752    0.25965   1.00
H2       0.64680    0.51538    0.61959   1.00
H2       0.64271    0.56929    0.62464   1.00
H2       0.59879    0.53975    0.61247   1.00
H2       0.87611    0.29847    0.25276   1.00
H2       0.88164    0.24453    0.25576   1.00
H2       0.83681    0.26606    0.23395   1.00
H2       0.77193    0.25606    0.53463   1.00
H2       0.73902    0.22322    0.56268   1.00
H2       0.73234    0.22904    0.50910   1.00
C5       1.29718    0.49221    0.51556   1.00
H2       1.31245    0.46493    0.52404   1.00
H2       1.27590    0.49819    0.53927   1.00
C5       1.32694    0.52572    0.51241   1.00
C5       1.33623    0.54268    0.55296   1.00
H2       1.31515    0.54934    0.49349   1.00
O3       1.14500    0.47771    0.38210   1.00
C4       1.18600    0.41458    0.41497   1.00
C3c      1.20743    0.43020    0.44621   1.00
H1       1.19225    0.44247    0.47099   1.00
C3d      1.20635    0.39823    0.38321   1.00
C3       1.24854    0.43079    0.44581   1.00
O2       1.26748    0.44214    0.47935   1.00
C3       1.24727    0.39945    0.38239   1.00
H1       1.26157    0.38781    0.35679   1.00
C2       1.26939    0.41552    0.41354   1.00
C5       1.14379    0.47616    0.34094   1.00
H2       1.11338    0.47751    0.32948   1.00
H2       1.15766    0.44887    0.32983   1.00
C5       1.16629    0.51128    0.32547   1.00
H2       1.19637    0.51053    0.33780   1.00
H2       1.15198    0.53835    0.33644   1.00
C5       1.16762    0.51109    0.28056   1.00
H2       1.13768    0.51156    0.26805   1.00
H2       1.18311    0.48474    0.26961   1.00
C5       1.18945    0.54743    0.26567   1.00
C5       1.17605    0.34575    0.35569   1.00
C5       1.27570    0.48255    0.47781   1.00
H2       1.15588    0.34224    0.38087   1.00
H2       1.20212    0.32684    0.36049   1.00
H2       1.24800    0.49956    0.47591   1.00
H2       1.29395    0.49062    0.45197   1.00
H2       1.35530    0.51524    0.50014   1.00
H2       1.10747    0.29793    0.34465   1.00
H2       1.15263    0.27114    0.33712   1.00
C2       1.06105    0.41591    0.41248   1.00
C3       1.08097    0.38495    0.43096   1.00
O2       1.06174    0.35065    0.43959   1.00
C3       1.08326    0.44698    0.39677   1.00
H1       1.06885    0.47160    0.38334   1.00
C3a      1.12213    0.38517    0.43244   1.00
H1       1.13702    0.36020    0.44470   1.00
C3b      1.12422    0.44651    0.39718   1.00
C4       1.14400    0.41542    0.41503   1.00
O3       1.18667    0.38518    0.35046   1.00
C5       1.05220    0.34935    0.47962   1.00
H2       1.07891    0.35115    0.49821   1.00
C5       1.03174    0.31052    0.48689   1.00
H2       1.03226    0.37377    0.48764   1.00
H2       1.05432    0.28726    0.48916   1.00
H2       1.01407    0.30373    0.46046   1.00
C5       1.00582    0.31097    0.52357   1.00
H2       1.02324    0.32079    0.54910   1.00
C5       0.98953    0.26998    0.53209   1.00
H2       0.98007    0.33065    0.51972   1.00
C5       1.15517    0.33248    0.31872   1.00
H2       1.17715    0.32957    0.29495   1.00
H2       1.13452    0.35592    0.30971   1.00
C5       1.13300    0.29388    0.32482   1.00
C5       1.11725    0.27889    0.28552   1.00
H2       1.35786    0.52283    0.56859   1.00
C5       1.35412    0.58362    0.54833   1.00
H2       1.30823    0.54477    0.57078   1.00
C5       1.19837    0.54265    0.22190   1.00
H2       1.17051    0.57438    0.27025   1.00
H2       1.21793    0.55091    0.28248   1.00
C5       0.96997    0.26974    0.57253   1.00
H2       0.96711    0.26192    0.50889   1.00
H2       1.01437    0.24787    0.53166   1.00
H2       1.10102    0.30341    0.26999   1.00
H2       1.14261    0.26866    0.26659   1.00
C5       1.08917    0.24458    0.29274   1.00
H2       1.36616    0.58703    0.51752   1.00
H2       1.33071    0.60662    0.55369   1.00
H2       1.37874    0.58752    0.57035   1.00
H2       1.18320    0.51538    0.21041   1.00
H2       1.18729    0.56929    0.20536   1.00
H2       1.23121    0.53975    0.21753   1.00
H2       0.95389    0.29847    0.57724   1.00
H2       0.94836    0.24453    0.57424   1.00
H2       0.99319    0.26606    0.59605   1.00
H2       1.05807    0.25606    0.29537   1.00
H2       1.09098    0.22322    0.26732   1.00
H2       1.09766    0.22904    0.32090   1.00
C5       0.81444    0.03282    0.49221   1.00
H2       0.80596    0.01755    0.46493   1.00
H2       0.79073    0.05410    0.49819   1.00
C5       0.81759    0.00306    0.52572   1.00
C5       0.77704    -0.00623   0.54268   1.00
H2       0.83651    0.01485    0.54934   1.00
O3       0.94790    0.18500    0.47771   1.00
C4       0.91503    0.14400    0.41458   1.00
C3c      0.88379    0.12257    0.43020   1.00
H1       0.85901    0.13775    0.44247   1.00
C3d      0.94679    0.12365    0.39823   1.00
C3       0.88419    0.08146    0.43079   1.00
O2       0.85065    0.06252    0.44214   1.00
C3       0.94761    0.08273    0.39945   1.00
H1       0.97321    0.06843    0.38781   1.00
C2       0.91646    0.06061    0.41552   1.00
C5       0.98906    0.18621    0.47616   1.00
H2       1.00052    0.21662    0.47751   1.00
H2       1.00017    0.17234    0.44887   1.00
C5       1.00453    0.16371    0.51128   1.00
H2       0.99220    0.13363    0.51053   1.00
H2       0.99356    0.17802    0.53835   1.00
C5       1.04944    0.16238    0.51109   1.00
H2       1.06195    0.19232    0.51156   1.00
H2       1.06039    0.14689    0.48474   1.00
C5       1.06433    0.14055    0.54743   1.00
C5       0.97431    0.15395    0.34575   1.00
C5       0.85219    0.05430    0.48255   1.00
H2       0.94913    0.17412    0.34224   1.00
H2       0.96951    0.12788    0.32684   1.00
H2       0.85409    0.08200    0.49956   1.00
H2       0.87803    0.03605    0.49062   1.00
H2       0.82986    -0.02530   0.51524   1.00
H2       0.98535    0.22253    0.29793   1.00
H2       0.99288    0.17737    0.27114   1.00
C2       0.91752    0.26895    0.41591   1.00
C3       0.89904    0.24903    0.38495   1.00
O2       0.89041    0.26826    0.35065   1.00
C3       0.93323    0.24674    0.44698   1.00
H1       0.94666    0.26115    0.47160   1.00
C3a      0.89756    0.20787    0.38517   1.00
H1       0.88530    0.19298    0.36020   1.00
C3b      0.93282    0.20578    0.44651   1.00
C4       0.91497    0.18600    0.41542   1.00
O3       0.97954    0.14333    0.38518   1.00
C5       0.85038    0.27780    0.34935   1.00
H2       0.83179    0.25109    0.35115   1.00
C5       0.84311    0.29826    0.31052   1.00
H2       0.84236    0.29774    0.37377   1.00
H2       0.84084    0.27568    0.28726   1.00
H2       0.86954    0.31593    0.30373   1.00
C5       0.80643    0.32418    0.31097   1.00
H2       0.78090    0.30676    0.32079   1.00
C5       0.79791    0.34047    0.26998   1.00
H2       0.81028    0.34993    0.33065   1.00
C5       1.01128    0.17483    0.33248   1.00
H2       1.03505    0.15285    0.32957   1.00
H2       1.02029    0.19548    0.35592   1.00
C5       1.00518    0.19700    0.29388   1.00
C5       1.04448    0.21275    0.27889   1.00
H2       0.76141    -0.02786   0.52283   1.00
C5       0.78167    -0.02412   0.58362   1.00
H2       0.75922    0.02177    0.54477   1.00
C5       1.10810    0.13163    0.54265   1.00
H2       1.05975    0.15949    0.57438   1.00
H2       1.04752    0.11207    0.55091   1.00
C5       0.75747    0.36003    0.26974   1.00
H2       0.82111    0.36289    0.26192   1.00
H2       0.79834    0.31563    0.24787   1.00
H2       1.06001    0.22898    0.30341   1.00
H2       1.06341    0.18739    0.26866   1.00
C5       1.03726    0.24083    0.24458   1.00
H2       0.81248    -0.03616   0.58703   1.00
H2       0.77631    -0.00071   0.60662   1.00
H2       0.75965    -0.04874   0.58752   1.00
H2       1.11959    0.14680    0.51538   1.00
H2       1.12464    0.14271    0.56929   1.00
H2       1.11247    0.09879    0.53975   1.00
H2       0.75276    0.37611    0.29847   1.00
H2       0.75576    0.38164    0.24453   1.00
H2       0.73395    0.33681    0.26606   1.00
H2       1.03463    0.27193    0.25606   1.00
H2       1.06268    0.23902    0.22322   1.00
H2       1.00910    0.23234    0.22904   1.00
C5       0.99221    0.31444    0.03282   1.00
H2       0.96493    0.30596    0.01755   1.00
H2       0.99819    0.29073    0.05410   1.00
C5       1.02572    0.31759    0.00306   1.00
C5       1.04268    0.27704    -0.00623   1.00
H2       1.04934    0.33651    0.01485   1.00
O3       0.97771    0.44790    0.18500   1.00
C4       0.91458    0.41503    0.14400   1.00
C3c      0.93020    0.38379    0.12257   1.00
H1       0.94247    0.35901    0.13775   1.00
C3d      0.89823    0.44679    0.12365   1.00
C3       0.93079    0.38419    0.08146   1.00
O2       0.94214    0.35065    0.06252   1.00
C3       0.89945    0.44761    0.08273   1.00
H1       0.88781    0.47321    0.06843   1.00
C2       0.91552    0.41646    0.06061   1.00
C5       0.97616    0.48906    0.18621   1.00
H2       0.97751    0.50052    0.21662   1.00
H2       0.94887    0.50017    0.17234   1.00
C5       1.01128    0.50453    0.16371   1.00
H2       1.01053    0.49220    0.13363   1.00
H2       1.03835    0.49356    0.17802   1.00
C5       1.01109    0.54944    0.16238   1.00
H2       1.01156    0.56195    0.19232   1.00
H2       0.98474    0.56039    0.14689   1.00
C5       1.04743    0.56433    0.14055   1.00
C5       0.84575    0.47431    0.15395   1.00
C5       0.98255    0.35219    0.05430   1.00
H2       0.84224    0.44913    0.17412   1.00
H2       0.82684    0.46951    0.12788   1.00
H2       0.99956    0.35409    0.08200   1.00
H2       0.99062    0.37803    0.03605   1.00
H2       1.01524    0.32986    -0.02530   1.00
H2       0.79793    0.48535    0.22253   1.00
H2       0.77114    0.49288    0.17737   1.00
C2       0.91591    0.41752    0.26895   1.00
C3       0.88495    0.39904    0.24903   1.00
O2       0.85065    0.39041    0.26826   1.00
C3       0.94698    0.43323    0.24674   1.00
H1       0.97160    0.44666    0.26115   1.00
C3a      0.88517    0.39756    0.20787   1.00
H1       0.86020    0.38530    0.19298   1.00
C3b      0.94651    0.43282    0.20578   1.00
C4       0.91542    0.41497    0.18600   1.00
O3       0.88518    0.47954    0.14333   1.00
C5       0.84935    0.35038    0.27780   1.00
H2       0.85115    0.33179    0.25109   1.00
C5       0.81052    0.34311    0.29826   1.00
H2       0.87377    0.34236    0.29774   1.00
H2       0.78726    0.34084    0.27568   1.00
H2       0.80373    0.36954    0.31593   1.00
C5       0.81097    0.30643    0.32418   1.00
H2       0.82079    0.28090    0.30676   1.00
C5       0.76998    0.29791    0.34047   1.00
H2       0.83065    0.31028    0.34993   1.00
C5       0.83248    0.51128    0.17483   1.00
H2       0.82957    0.53505    0.15285   1.00
H2       0.85592    0.52029    0.19548   1.00
C5       0.79388    0.50518    0.19700   1.00
C5       0.77889    0.54448    0.21275   1.00
H2       1.02283    0.26141    -0.02786   1.00
C5       1.08362    0.28167    -0.02412   1.00
H2       1.04477    0.25922    0.02177   1.00
C5       1.04265    0.60810    0.13163   1.00
H2       1.07438    0.55975    0.15949   1.00
H2       1.05091    0.54752    0.11207   1.00
C5       0.76974    0.25747    0.36003   1.00
H2       0.76192    0.32111    0.36289   1.00
H2       0.74787    0.29834    0.31563   1.00
H2       0.80341    0.56001    0.22898   1.00
H2       0.76866    0.56341    0.18739   1.00
C5       0.74458    0.53726    0.24083   1.00
H2       1.08703    0.31248    -0.03616   1.00
H2       1.10662    0.27631    -0.00071   1.00
H2       1.08752    0.25965    -0.04874   1.00
H2       1.01538    0.61959    0.14680   1.00
H2       1.06929    0.62464    0.14271   1.00
H2       1.03975    0.61247    0.09879   1.00
H2       0.79847    0.25276    0.37611   1.00
H2       0.74453    0.25576    0.38164   1.00
H2       0.76606    0.23395    0.33681   1.00
H2       0.75606    0.53463    0.27193   1.00
H2       0.72322    0.56268    0.23902   1.00
H2       0.72904    0.50910    0.23234   1.00
