data_IRMOF10_SG202_interpen_Ligand11cp_label_h.

_audit_creation_method             'generated by an auxiliary program of Tobunporous'

_symmetry_space_group_name_H-M     'P 1'
_symmetry_Int_Tables_number        1
_symmetry_cell_setting             triclinic

_cell_length_a                    34.2800
_cell_length_b                    34.2800
_cell_length_c                    34.2800
_cell_angle_alpha                 90.0000
_cell_angle_beta                  90.0000
_cell_angle_gamma                 90.0000

loop_
_atom_site_label
_atom_site_fract_x
_atom_site_fract_y
_atom_site_fract_z
_atom_site_occupancy
O1       0.75000    0.75000    0.75000   1.00
Zn1      0.71720    0.78280    0.78280   1.00
Zn1      0.78280    0.71720    0.78280   1.00
Zn1      0.78280    0.78280    0.71720   1.00
Zn1      0.71720    0.71720    0.71720   1.00
O2       0.72650    0.77350    0.83820   1.00
O2       0.72650    0.83820    0.77350   1.00
O2       0.66180    0.77350    0.77350   1.00
O2       0.77350    0.72650    0.83820   1.00
O2       0.83820    0.72650    0.77350   1.00
O2       0.77350    0.66180    0.77350   1.00
O2       0.77350    0.83820    0.72650   1.00
O2       0.83820    0.77350    0.72650   1.00
O2       0.77350    0.77350    0.66180   1.00
O2       0.66180    0.72650    0.72650   1.00
O2       0.72650    0.66180    0.72650   1.00
O2       0.72650    0.72650    0.66180   1.00
C1       0.75000    0.75000    0.85520   1.00
C1       0.75000    0.85520    0.75000   1.00
C1       0.64480    0.75000    0.75000   1.00
C1       0.85520    0.75000    0.75000   1.00
C1       0.75000    0.64480    0.75000   1.00
C1       0.75000    0.75000    0.64480   1.00
O1       0.25000    0.25000    0.75000   1.00
Zn1      0.21720    0.28280    0.78280   1.00
Zn1      0.28280    0.21720    0.78280   1.00
Zn1      0.28280    0.28280    0.71720   1.00
Zn1      0.21720    0.21720    0.71720   1.00
O2       0.22650    0.27350    0.83820   1.00
O2       0.22650    0.33820    0.77350   1.00
O2       0.16180    0.27350    0.77350   1.00
O2       0.27350    0.22650    0.83820   1.00
O2       0.33820    0.22650    0.77350   1.00
O2       0.27350    0.16180    0.77350   1.00
O2       0.27350    0.33820    0.72650   1.00
O2       0.33820    0.27350    0.72650   1.00
O2       0.27350    0.27350    0.66180   1.00
O2       0.16180    0.22650    0.72650   1.00
O2       0.22650    0.16180    0.72650   1.00
O2       0.22650    0.22650    0.66180   1.00
C1       0.25000    0.25000    0.85520   1.00
C1       0.25000    0.35520    0.75000   1.00
C1       0.14480    0.25000    0.75000   1.00
C1       0.35520    0.25000    0.75000   1.00
C1       0.25000    0.14480    0.75000   1.00
C1       0.25000    0.25000    0.64480   1.00
O1       0.25000    0.75000    0.25000   1.00
Zn1      0.21720    0.78280    0.28280   1.00
Zn1      0.28280    0.71720    0.28280   1.00
Zn1      0.28280    0.78280    0.21720   1.00
Zn1      0.21720    0.71720    0.21720   1.00
O2       0.22650    0.77350    0.33820   1.00
O2       0.22650    0.83820    0.27350   1.00
O2       0.16180    0.77350    0.27350   1.00
O2       0.27350    0.72650    0.33820   1.00
O2       0.33820    0.72650    0.27350   1.00
O2       0.27350    0.66180    0.27350   1.00
O2       0.27350    0.83820    0.22650   1.00
O2       0.33820    0.77350    0.22650   1.00
O2       0.27350    0.77350    0.16180   1.00
O2       0.16180    0.72650    0.22650   1.00
O2       0.22650    0.66180    0.22650   1.00
O2       0.22650    0.72650    0.16180   1.00
C1       0.25000    0.75000    0.35520   1.00
C1       0.25000    0.85520    0.25000   1.00
C1       0.14480    0.75000    0.25000   1.00
C1       0.35520    0.75000    0.25000   1.00
C1       0.25000    0.64480    0.25000   1.00
C1       0.25000    0.75000    0.14480   1.00
O1       0.75000    0.25000    0.25000   1.00
Zn1      0.71720    0.28280    0.28280   1.00
Zn1      0.78280    0.21720    0.28280   1.00
Zn1      0.78280    0.28280    0.21720   1.00
Zn1      0.71720    0.21720    0.21720   1.00
O2       0.72650    0.27350    0.33820   1.00
O2       0.72650    0.33820    0.27350   1.00
O2       0.66180    0.27350    0.27350   1.00
O2       0.77350    0.22650    0.33820   1.00
O2       0.83820    0.22650    0.27350   1.00
O2       0.77350    0.16180    0.27350   1.00
O2       0.77350    0.33820    0.22650   1.00
O2       0.83820    0.27350    0.22650   1.00
O2       0.77350    0.27350    0.16180   1.00
O2       0.66180    0.22650    0.22650   1.00
O2       0.72650    0.16180    0.22650   1.00
O2       0.72650    0.22650    0.16180   1.00
C1       0.75000    0.25000    0.35520   1.00
C1       0.75000    0.35520    0.25000   1.00
C1       0.64480    0.25000    0.25000   1.00
C1       0.85520    0.25000    0.25000   1.00
C1       0.75000    0.14480    0.25000   1.00
C1       0.75000    0.25000    0.14480   1.00
O1       0.25000    0.25000    0.25000   1.00
Zn1      0.28280    0.21720    0.21720   1.00
Zn1      0.21720    0.28280    0.21720   1.00
Zn1      0.21720    0.21720    0.28280   1.00
Zn1      0.28280    0.28280    0.28280   1.00
O2       0.27350    0.22650    0.16180   1.00
O2       0.27350    0.16180    0.22650   1.00
O2       0.33820    0.22650    0.22650   1.00
O2       0.22650    0.27350    0.16180   1.00
O2       0.16180    0.27350    0.22650   1.00
O2       0.22650    0.33820    0.22650   1.00
O2       0.22650    0.16180    0.27350   1.00
O2       0.16180    0.22650    0.27350   1.00
O2       0.22650    0.22650    0.33820   1.00
O2       0.33820    0.27350    0.27350   1.00
O2       0.27350    0.33820    0.27350   1.00
O2       0.27350    0.27350    0.33820   1.00
C1       0.25000    0.25000    0.14480   1.00
C1       0.25000    0.14480    0.25000   1.00
C1       0.35520    0.25000    0.25000   1.00
C1       0.14480    0.25000    0.25000   1.00
C1       0.25000    0.35520    0.25000   1.00
C1       0.25000    0.25000    0.35520   1.00
O1       0.75000    0.75000    0.25000   1.00
Zn1      0.78280    0.71720    0.21720   1.00
Zn1      0.71720    0.78280    0.21720   1.00
Zn1      0.71720    0.71720    0.28280   1.00
Zn1      0.78280    0.78280    0.28280   1.00
O2       0.77350    0.72650    0.16180   1.00
O2       0.77350    0.66180    0.22650   1.00
O2       0.83820    0.72650    0.22650   1.00
O2       0.72650    0.77350    0.16180   1.00
O2       0.66180    0.77350    0.22650   1.00
O2       0.72650    0.83820    0.22650   1.00
O2       0.72650    0.66180    0.27350   1.00
O2       0.66180    0.72650    0.27350   1.00
O2       0.72650    0.72650    0.33820   1.00
O2       0.83820    0.77350    0.27350   1.00
O2       0.77350    0.83820    0.27350   1.00
O2       0.77350    0.77350    0.33820   1.00
C1       0.75000    0.75000    0.14480   1.00
C1       0.75000    0.64480    0.25000   1.00
C1       0.85520    0.75000    0.25000   1.00
C1       0.64480    0.75000    0.25000   1.00
C1       0.75000    0.85520    0.25000   1.00
C1       0.75000    0.75000    0.35520   1.00
O1       0.75000    0.25000    0.75000   1.00
Zn1      0.78280    0.21720    0.71720   1.00
Zn1      0.71720    0.28280    0.71720   1.00
Zn1      0.71720    0.21720    0.78280   1.00
Zn1      0.78280    0.28280    0.78280   1.00
O2       0.77350    0.22650    0.66180   1.00
O2       0.77350    0.16180    0.72650   1.00
O2       0.83820    0.22650    0.72650   1.00
O2       0.72650    0.27350    0.66180   1.00
O2       0.66180    0.27350    0.72650   1.00
O2       0.72650    0.33820    0.72650   1.00
O2       0.72650    0.16180    0.77350   1.00
O2       0.66180    0.22650    0.77350   1.00
O2       0.72650    0.22650    0.83820   1.00
O2       0.83820    0.27350    0.77350   1.00
O2       0.77350    0.33820    0.77350   1.00
O2       0.77350    0.27350    0.83820   1.00
C1       0.75000    0.25000    0.64480   1.00
C1       0.75000    0.14480    0.75000   1.00
C1       0.85520    0.25000    0.75000   1.00
C1       0.64480    0.25000    0.75000   1.00
C1       0.75000    0.35520    0.75000   1.00
C1       0.75000    0.25000    0.85520   1.00
O1       0.25000    0.75000    0.75000   1.00
Zn1      0.28280    0.71720    0.71720   1.00
Zn1      0.21720    0.78280    0.71720   1.00
Zn1      0.21720    0.71720    0.78280   1.00
Zn1      0.28280    0.78280    0.78280   1.00
O2       0.27350    0.72650    0.66180   1.00
O2       0.27350    0.66180    0.72650   1.00
O2       0.33820    0.72650    0.72650   1.00
O2       0.22650    0.77350    0.66180   1.00
O2       0.16180    0.77350    0.72650   1.00
O2       0.22650    0.83820    0.72650   1.00
O2       0.22650    0.66180    0.77350   1.00
O2       0.16180    0.72650    0.77350   1.00
O2       0.22650    0.72650    0.83820   1.00
O2       0.33820    0.77350    0.77350   1.00
O2       0.27350    0.83820    0.77350   1.00
O2       0.27350    0.77350    0.83820   1.00
C1       0.25000    0.75000    0.64480   1.00
C1       0.25000    0.64480    0.75000   1.00
C1       0.35520    0.75000    0.75000   1.00
C1       0.14480    0.75000    0.75000   1.00
C1       0.25000    0.85520    0.75000   1.00
C1       0.25000    0.75000    0.85520   1.00
O1       0.91500    0.91500    0.91500   1.00
Zn1      0.88220    0.94780    0.94780   1.00
Zn1      0.94780    0.88220    0.94780   1.00
Zn1      0.94780    0.94780    0.88220   1.00
Zn1      0.88220    0.88220    0.88220   1.00
O2       0.89150    0.93850    1.00320   1.00
O2       0.89150    1.00320    0.93850   1.00
O2       0.82680    0.93850    0.93850   1.00
O2       0.93850    0.89150    1.00320   1.00
O2       1.00320    0.89150    0.93850   1.00
O2       0.93850    0.82680    0.93850   1.00
O2       0.93850    1.00320    0.89150   1.00
O2       1.00320    0.93850    0.89150   1.00
O2       0.93850    0.93850    0.82680   1.00
O2       0.82680    0.89150    0.89150   1.00
O2       0.89150    0.82680    0.89150   1.00
O2       0.89150    0.89150    0.82680   1.00
C1       0.91500    0.91500    1.02020   1.00
C1       0.91500    1.02020    0.91500   1.00
C1       0.80980    0.91500    0.91500   1.00
C1       1.02020    0.91500    0.91500   1.00
C1       0.91500    0.80980    0.91500   1.00
C1       0.91500    0.91500    0.80980   1.00
O1       0.41500    0.41500    0.91500   1.00
Zn1      0.38220    0.44780    0.94780   1.00
Zn1      0.44780    0.38220    0.94780   1.00
Zn1      0.44780    0.44780    0.88220   1.00
Zn1      0.38220    0.38220    0.88220   1.00
O2       0.39150    0.43850    1.00320   1.00
O2       0.39150    0.50320    0.93850   1.00
O2       0.32680    0.43850    0.93850   1.00
O2       0.43850    0.39150    1.00320   1.00
O2       0.50320    0.39150    0.93850   1.00
O2       0.43850    0.32680    0.93850   1.00
O2       0.43850    0.50320    0.89150   1.00
O2       0.50320    0.43850    0.89150   1.00
O2       0.43850    0.43850    0.82680   1.00
O2       0.32680    0.39150    0.89150   1.00
O2       0.39150    0.32680    0.89150   1.00
O2       0.39150    0.39150    0.82680   1.00
C1       0.41500    0.41500    1.02020   1.00
C1       0.41500    0.52020    0.91500   1.00
C1       0.30980    0.41500    0.91500   1.00
C1       0.52020    0.41500    0.91500   1.00
C1       0.41500    0.30980    0.91500   1.00
C1       0.41500    0.41500    0.80980   1.00
O1       0.41500    0.91500    0.41500   1.00
Zn1      0.38220    0.94780    0.44780   1.00
Zn1      0.44780    0.88220    0.44780   1.00
Zn1      0.44780    0.94780    0.38220   1.00
Zn1      0.38220    0.88220    0.38220   1.00
O2       0.39150    0.93850    0.50320   1.00
O2       0.39150    1.00320    0.43850   1.00
O2       0.32680    0.93850    0.43850   1.00
O2       0.43850    0.89150    0.50320   1.00
O2       0.50320    0.89150    0.43850   1.00
O2       0.43850    0.82680    0.43850   1.00
O2       0.43850    1.00320    0.39150   1.00
O2       0.50320    0.93850    0.39150   1.00
O2       0.43850    0.93850    0.32680   1.00
O2       0.32680    0.89150    0.39150   1.00
O2       0.39150    0.82680    0.39150   1.00
O2       0.39150    0.89150    0.32680   1.00
C1       0.41500    0.91500    0.52020   1.00
C1       0.41500    1.02020    0.41500   1.00
C1       0.30980    0.91500    0.41500   1.00
C1       0.52020    0.91500    0.41500   1.00
C1       0.41500    0.80980    0.41500   1.00
C1       0.41500    0.91500    0.30980   1.00
O1       0.91500    0.41500    0.41500   1.00
Zn1      0.88220    0.44780    0.44780   1.00
Zn1      0.94780    0.38220    0.44780   1.00
Zn1      0.94780    0.44780    0.38220   1.00
Zn1      0.88220    0.38220    0.38220   1.00
O2       0.89150    0.43850    0.50320   1.00
O2       0.89150    0.50320    0.43850   1.00
O2       0.82680    0.43850    0.43850   1.00
O2       0.93850    0.39150    0.50320   1.00
O2       1.00320    0.39150    0.43850   1.00
O2       0.93850    0.32680    0.43850   1.00
O2       0.93850    0.50320    0.39150   1.00
O2       1.00320    0.43850    0.39150   1.00
O2       0.93850    0.43850    0.32680   1.00
O2       0.82680    0.39150    0.39150   1.00
O2       0.89150    0.32680    0.39150   1.00
O2       0.89150    0.39150    0.32680   1.00
C1       0.91500    0.41500    0.52020   1.00
C1       0.91500    0.52020    0.41500   1.00
C1       0.80980    0.41500    0.41500   1.00
C1       1.02020    0.41500    0.41500   1.00
C1       0.91500    0.30980    0.41500   1.00
C1       0.91500    0.41500    0.30980   1.00
O1       0.41500    0.41500    0.41500   1.00
Zn1      0.44780    0.38220    0.38220   1.00
Zn1      0.38220    0.44780    0.38220   1.00
Zn1      0.38220    0.38220    0.44780   1.00
Zn1      0.44780    0.44780    0.44780   1.00
O2       0.43850    0.39150    0.32680   1.00
O2       0.43850    0.32680    0.39150   1.00
O2       0.50320    0.39150    0.39150   1.00
O2       0.39150    0.43850    0.32680   1.00
O2       0.32680    0.43850    0.39150   1.00
O2       0.39150    0.50320    0.39150   1.00
O2       0.39150    0.32680    0.43850   1.00
O2       0.32680    0.39150    0.43850   1.00
O2       0.39150    0.39150    0.50320   1.00
O2       0.50320    0.43850    0.43850   1.00
O2       0.43850    0.50320    0.43850   1.00
O2       0.43850    0.43850    0.50320   1.00
C1       0.41500    0.41500    0.30980   1.00
C1       0.41500    0.30980    0.41500   1.00
C1       0.52020    0.41500    0.41500   1.00
C1       0.30980    0.41500    0.41500   1.00
C1       0.41500    0.52020    0.41500   1.00
C1       0.41500    0.41500    0.52020   1.00
O1       0.91500    0.91500    0.41500   1.00
Zn1      0.94780    0.88220    0.38220   1.00
Zn1      0.88220    0.94780    0.38220   1.00
Zn1      0.88220    0.88220    0.44780   1.00
Zn1      0.94780    0.94780    0.44780   1.00
O2       0.93850    0.89150    0.32680   1.00
O2       0.93850    0.82680    0.39150   1.00
O2       1.00320    0.89150    0.39150   1.00
O2       0.89150    0.93850    0.32680   1.00
O2       0.82680    0.93850    0.39150   1.00
O2       0.89150    1.00320    0.39150   1.00
O2       0.89150    0.82680    0.43850   1.00
O2       0.82680    0.89150    0.43850   1.00
O2       0.89150    0.89150    0.50320   1.00
O2       1.00320    0.93850    0.43850   1.00
O2       0.93850    1.00320    0.43850   1.00
O2       0.93850    0.93850    0.50320   1.00
C1       0.91500    0.91500    0.30980   1.00
C1       0.91500    0.80980    0.41500   1.00
C1       1.02020    0.91500    0.41500   1.00
C1       0.80980    0.91500    0.41500   1.00
C1       0.91500    1.02020    0.41500   1.00
C1       0.91500    0.91500    0.52020   1.00
O1       0.91500    0.41500    0.91500   1.00
Zn1      0.94780    0.38220    0.88220   1.00
Zn1      0.88220    0.44780    0.88220   1.00
Zn1      0.88220    0.38220    0.94780   1.00
Zn1      0.94780    0.44780    0.94780   1.00
O2       0.93850    0.39150    0.82680   1.00
O2       0.93850    0.32680    0.89150   1.00
O2       1.00320    0.39150    0.89150   1.00
O2       0.89150    0.43850    0.82680   1.00
O2       0.82680    0.43850    0.89150   1.00
O2       0.89150    0.50320    0.89150   1.00
O2       0.89150    0.32680    0.93850   1.00
O2       0.82680    0.39150    0.93850   1.00
O2       0.89150    0.39150    1.00320   1.00
O2       1.00320    0.43850    0.93850   1.00
O2       0.93850    0.50320    0.93850   1.00
O2       0.93850    0.43850    1.00320   1.00
C1       0.91500    0.41500    0.80980   1.00
C1       0.91500    0.30980    0.91500   1.00
C1       1.02020    0.41500    0.91500   1.00
C1       0.80980    0.41500    0.91500   1.00
C1       0.91500    0.52020    0.91500   1.00
C1       0.91500    0.41500    1.02020   1.00
O1       0.41500    0.91500    0.91500   1.00
Zn1      0.44780    0.88220    0.88220   1.00
Zn1      0.38220    0.94780    0.88220   1.00
Zn1      0.38220    0.88220    0.94780   1.00
Zn1      0.44780    0.94780    0.94780   1.00
O2       0.43850    0.89150    0.82680   1.00
O2       0.43850    0.82680    0.89150   1.00
O2       0.50320    0.89150    0.89150   1.00
O2       0.39150    0.93850    0.82680   1.00
O2       0.32680    0.93850    0.89150   1.00
O2       0.39150    1.00320    0.89150   1.00
O2       0.39150    0.82680    0.93850   1.00
O2       0.32680    0.89150    0.93850   1.00
O2       0.39150    0.89150    1.00320   1.00
O2       0.50320    0.93850    0.93850   1.00
O2       0.43850    1.00320    0.93850   1.00
O2       0.43850    0.93850    1.00320   1.00
C1       0.41500    0.91500    0.80980   1.00
C1       0.41500    0.80980    0.91500   1.00
C1       0.52020    0.91500    0.91500   1.00
C1       0.30980    0.91500    0.91500   1.00
C1       0.41500    1.02020    0.91500   1.00
C1       0.41500    0.91500    1.02020   1.00
C4       0.75018    0.74992    0.97915   1.00
C4       0.74982    0.75008    1.02085   1.00
C3a      0.78436    0.75981    0.95746   1.00
C3       0.76546    0.71863    1.04232   1.00
C3       0.71655    0.73979    0.95768   1.00
C3a      0.73363    0.78176    1.04254   1.00
C2       0.74997    0.74992    0.89488   1.00
C2       0.74996    0.74993    1.10512   1.00
C3       0.78368    0.75973    0.91595   1.00
C3       0.76562    0.71865    1.08363   1.00
C3       0.71646    0.73992    0.91637   1.00
C3       0.73403    0.78121    1.08405   1.00
C5       0.82190    0.77120    0.97772   1.00
H1       0.77801    0.69405    1.02691   1.00
H1       0.80968    0.76746    0.89979   1.00
H1       0.77810    0.69406    1.09901   1.00
H1       0.68998    0.73219    0.90099   1.00
H1       0.72187    0.80545    1.10021   1.00
C5       0.71623    0.81693    1.02228   1.00
H1       0.69004    0.73211    0.97309   1.00
H2       0.71577    0.84220    1.04256   1.00
H2       0.73487    0.82582    0.99731   1.00
H2       0.84064    0.78817    0.95744   1.00
H2       0.81563    0.79088    1.00269   1.00
N1       0.67664    0.80867    1.00857   1.00
C6       0.64535    0.80159    1.03073   1.00
C6       0.66463    0.80786    0.97154   1.00
C6       0.61305    0.79567    1.00759   1.00
C6       0.62531    0.79967    0.96995   1.00
H3       0.64588    0.80042    1.06197   1.00
H3       0.68335    0.81263    0.94700   1.00
H3       0.58382    0.78920    1.01713   1.00
H3       0.60756    0.79689    0.94425   1.00
N1       0.84299    0.73669    0.99143   1.00
C6       0.85062    0.72739    1.02846   1.00
C6       0.85925    0.70904    0.96927   1.00
C6       0.87157    0.69312    1.03005   1.00
C6       0.87705    0.68144    0.99241   1.00
H3       0.84128    0.74429    1.05300   1.00
H3       0.85803    0.70862    0.93803   1.00
H3       0.88169    0.67827    1.05575   1.00
H3       0.89234    0.65571    0.98287   1.00
C4       0.74992    0.97915    0.75018   1.00
C4       0.75008    1.02085    0.74982   1.00
C3a      0.75981    0.95746    0.78436   1.00
C3       0.71863    1.04232    0.76546   1.00
C3       0.73979    0.95768    0.71655   1.00
C3a      0.78176    1.04254    0.73363   1.00
C2       0.74992    0.89488    0.74997   1.00
C2       0.74993    1.10512    0.74996   1.00
C3       0.75973    0.91595    0.78368   1.00
C3       0.71865    1.08363    0.76562   1.00
C3       0.73992    0.91637    0.71646   1.00
C3       0.78121    1.08405    0.73403   1.00
C5       0.77120    0.97772    0.82190   1.00
H1       0.69405    1.02691    0.77801   1.00
H1       0.76746    0.89979    0.80968   1.00
H1       0.69406    1.09901    0.77810   1.00
H1       0.73219    0.90099    0.68998   1.00
H1       0.80545    1.10021    0.72187   1.00
C5       0.81693    1.02228    0.71623   1.00
H1       0.73211    0.97309    0.69004   1.00
H2       0.84220    1.04256    0.71577   1.00
H2       0.82582    0.99731    0.73487   1.00
H2       0.78817    0.95744    0.84064   1.00
H2       0.79088    1.00269    0.81563   1.00
N1       0.80867    1.00857    0.67664   1.00
C6       0.80159    1.03073    0.64535   1.00
C6       0.80786    0.97154    0.66463   1.00
C6       0.79567    1.00759    0.61305   1.00
C6       0.79967    0.96995    0.62531   1.00
H3       0.80042    1.06197    0.64588   1.00
H3       0.81263    0.94700    0.68335   1.00
H3       0.78920    1.01713    0.58382   1.00
H3       0.79689    0.94425    0.60756   1.00
N1       0.73669    0.99143    0.84299   1.00
C6       0.72739    1.02846    0.85062   1.00
C6       0.70904    0.96927    0.85925   1.00
C6       0.69312    1.03005    0.87157   1.00
C6       0.68144    0.99241    0.87705   1.00
H3       0.74429    1.05300    0.84128   1.00
H3       0.70862    0.93803    0.85803   1.00
H3       0.67827    1.05575    0.88169   1.00
H3       0.65571    0.98287    0.89234   1.00
C4       0.52085    0.75018    0.75008   1.00
C4       0.47915    0.74982    0.74992   1.00
C3a      0.54254    0.78436    0.74019   1.00
C3       0.45768    0.76546    0.78137   1.00
C3       0.54232    0.71655    0.76021   1.00
C3a      0.45746    0.73363    0.71824   1.00
C2       0.60512    0.74997    0.75008   1.00
C2       0.39488    0.74996    0.75007   1.00
C3       0.58405    0.78368    0.74027   1.00
C3       0.41637    0.76562    0.78135   1.00
C3       0.58363    0.71646    0.76008   1.00
C3       0.41595    0.73403    0.71879   1.00
C5       0.52228    0.82190    0.72880   1.00
H1       0.47309    0.77801    0.80595   1.00
H1       0.60021    0.80968    0.73254   1.00
H1       0.40099    0.77810    0.80594   1.00
H1       0.59901    0.68998    0.76781   1.00
H1       0.39979    0.72187    0.69455   1.00
C5       0.47772    0.71623    0.68307   1.00
H1       0.52691    0.69004    0.76789   1.00
H2       0.45744    0.71577    0.65780   1.00
H2       0.50269    0.73487    0.67418   1.00
H2       0.54256    0.84064    0.71183   1.00
H2       0.49731    0.81563    0.70912   1.00
N1       0.49143    0.67664    0.69133   1.00
C6       0.46927    0.64535    0.69841   1.00
C6       0.52846    0.66463    0.69214   1.00
C6       0.49241    0.61305    0.70433   1.00
C6       0.53005    0.62531    0.70033   1.00
H3       0.43803    0.64588    0.69958   1.00
H3       0.55300    0.68335    0.68737   1.00
H3       0.48287    0.58382    0.71080   1.00
H3       0.55575    0.60756    0.70311   1.00
N1       0.50857    0.84299    0.76331   1.00
C6       0.47154    0.85062    0.77261   1.00
C6       0.53073    0.85925    0.79096   1.00
C6       0.46995    0.87157    0.80688   1.00
C6       0.50759    0.87705    0.81856   1.00
H3       0.44700    0.84128    0.75571   1.00
H3       0.56197    0.85803    0.79138   1.00
H3       0.44425    0.88169    0.82173   1.00
H3       0.51713    0.89234    0.84429   1.00
C4       0.97915    0.75018    0.74992   1.00
C4       1.02085    0.74982    0.75008   1.00
C3a      0.95746    0.78436    0.75981   1.00
C3       1.04232    0.76546    0.71863   1.00
C3       0.95768    0.71655    0.73979   1.00
C3a      1.04254    0.73363    0.78176   1.00
C2       0.89488    0.74997    0.74992   1.00
C2       1.10512    0.74996    0.74993   1.00
C3       0.91595    0.78368    0.75973   1.00
C3       1.08363    0.76562    0.71865   1.00
C3       0.91637    0.71646    0.73992   1.00
C3       1.08405    0.73403    0.78121   1.00
C5       0.97772    0.82190    0.77120   1.00
H1       1.02691    0.77801    0.69405   1.00
H1       0.89979    0.80968    0.76746   1.00
H1       1.09901    0.77810    0.69406   1.00
H1       0.90099    0.68998    0.73219   1.00
H1       1.10021    0.72187    0.80545   1.00
C5       1.02228    0.71623    0.81693   1.00
H1       0.97309    0.69004    0.73211   1.00
H2       1.04256    0.71577    0.84220   1.00
H2       0.99731    0.73487    0.82582   1.00
H2       0.95744    0.84064    0.78817   1.00
H2       1.00269    0.81563    0.79088   1.00
N1       1.00857    0.67664    0.80867   1.00
C6       1.03073    0.64535    0.80159   1.00
C6       0.97154    0.66463    0.80786   1.00
C6       1.00759    0.61305    0.79567   1.00
C6       0.96995    0.62531    0.79967   1.00
H3       1.06197    0.64588    0.80042   1.00
H3       0.94700    0.68335    0.81263   1.00
H3       1.01713    0.58382    0.78920   1.00
H3       0.94425    0.60756    0.79689   1.00
N1       0.99143    0.84299    0.73669   1.00
C6       1.02846    0.85062    0.72739   1.00
C6       0.96927    0.85925    0.70904   1.00
C6       1.03005    0.87157    0.69312   1.00
C6       0.99241    0.87705    0.68144   1.00
H3       1.05300    0.84128    0.74429   1.00
H3       0.93803    0.85803    0.70862   1.00
H3       1.05575    0.88169    0.67827   1.00
H3       0.98287    0.89234    0.65571   1.00
C4       0.75008    0.52085    0.75018   1.00
C4       0.74992    0.47915    0.74982   1.00
C3a      0.74019    0.54254    0.78436   1.00
C3       0.78137    0.45768    0.76546   1.00
C3       0.76021    0.54232    0.71655   1.00
C3a      0.71824    0.45746    0.73363   1.00
C2       0.75008    0.60512    0.74997   1.00
C2       0.75007    0.39488    0.74996   1.00
C3       0.74027    0.58405    0.78368   1.00
C3       0.78135    0.41637    0.76562   1.00
C3       0.76008    0.58363    0.71646   1.00
C3       0.71879    0.41595    0.73403   1.00
C5       0.72880    0.52228    0.82190   1.00
H1       0.80595    0.47309    0.77801   1.00
H1       0.73254    0.60021    0.80968   1.00
H1       0.80594    0.40099    0.77810   1.00
H1       0.76781    0.59901    0.68998   1.00
H1       0.69455    0.39979    0.72187   1.00
C5       0.68307    0.47772    0.71623   1.00
H1       0.76789    0.52691    0.69004   1.00
H2       0.65780    0.45744    0.71577   1.00
H2       0.67418    0.50269    0.73487   1.00
H2       0.71183    0.54256    0.84064   1.00
H2       0.70912    0.49731    0.81563   1.00
N1       0.69133    0.49143    0.67664   1.00
C6       0.69841    0.46927    0.64535   1.00
C6       0.69214    0.52846    0.66463   1.00
C6       0.70433    0.49241    0.61305   1.00
C6       0.70033    0.53005    0.62531   1.00
H3       0.69958    0.43803    0.64588   1.00
H3       0.68737    0.55300    0.68335   1.00
H3       0.71080    0.48287    0.58382   1.00
H3       0.70311    0.55575    0.60756   1.00
N1       0.76331    0.50857    0.84299   1.00
C6       0.77261    0.47154    0.85062   1.00
C6       0.79096    0.53073    0.85925   1.00
C6       0.80688    0.46995    0.87157   1.00
C6       0.81856    0.50759    0.87705   1.00
H3       0.75571    0.44700    0.84128   1.00
H3       0.79138    0.56197    0.85803   1.00
H3       0.82173    0.44425    0.88169   1.00
H3       0.84429    0.51713    0.89234   1.00
C4       0.75018    0.75008    0.52085   1.00
C4       0.74982    0.74992    0.47915   1.00
C3a      0.78436    0.74019    0.54254   1.00
C3       0.76546    0.78137    0.45768   1.00
C3       0.71655    0.76021    0.54232   1.00
C3a      0.73363    0.71824    0.45746   1.00
C2       0.74997    0.75008    0.60512   1.00
C2       0.74996    0.75007    0.39488   1.00
C3       0.78368    0.74027    0.58405   1.00
C3       0.76562    0.78135    0.41637   1.00
C3       0.71646    0.76008    0.58363   1.00
C3       0.73403    0.71879    0.41595   1.00
C5       0.82190    0.72880    0.52228   1.00
H1       0.77801    0.80595    0.47309   1.00
H1       0.80968    0.73254    0.60021   1.00
H1       0.77810    0.80594    0.40099   1.00
H1       0.68998    0.76781    0.59901   1.00
H1       0.72187    0.69455    0.39979   1.00
C5       0.71623    0.68307    0.47772   1.00
H1       0.69004    0.76789    0.52691   1.00
H2       0.71577    0.65780    0.45744   1.00
H2       0.73487    0.67418    0.50269   1.00
H2       0.84064    0.71183    0.54256   1.00
H2       0.81563    0.70912    0.49731   1.00
N1       0.67664    0.69133    0.49143   1.00
C6       0.64535    0.69841    0.46927   1.00
C6       0.66463    0.69214    0.52846   1.00
C6       0.61305    0.70433    0.49241   1.00
C6       0.62531    0.70033    0.53005   1.00
H3       0.64588    0.69958    0.43803   1.00
H3       0.68335    0.68737    0.55300   1.00
H3       0.58382    0.71080    0.48287   1.00
H3       0.60756    0.70311    0.55575   1.00
N1       0.84299    0.76331    0.50857   1.00
C6       0.85062    0.77261    0.47154   1.00
C6       0.85925    0.79096    0.53073   1.00
C6       0.87157    0.80688    0.46995   1.00
C6       0.87705    0.81856    0.50759   1.00
H3       0.84128    0.75571    0.44700   1.00
H3       0.85803    0.79138    0.56197   1.00
H3       0.88169    0.82173    0.44425   1.00
H3       0.89234    0.84429    0.51713   1.00
C4       0.25018    0.24992    0.97915   1.00
C4       0.24982    0.25008    1.02085   1.00
C3a      0.28436    0.25981    0.95746   1.00
C3       0.26546    0.21863    1.04232   1.00
C3       0.21655    0.23979    0.95768   1.00
C3a      0.23363    0.28176    1.04254   1.00
C2       0.24997    0.24992    0.89488   1.00
C2       0.24996    0.24993    1.10512   1.00
C3       0.28368    0.25973    0.91595   1.00
C3       0.26562    0.21865    1.08363   1.00
C3       0.21646    0.23992    0.91637   1.00
C3       0.23403    0.28121    1.08405   1.00
C5       0.32190    0.27120    0.97772   1.00
H1       0.27801    0.19405    1.02691   1.00
H1       0.30968    0.26746    0.89979   1.00
H1       0.27810    0.19406    1.09901   1.00
H1       0.18998    0.23219    0.90099   1.00
H1       0.22187    0.30545    1.10021   1.00
C5       0.21623    0.31693    1.02228   1.00
H1       0.19004    0.23211    0.97309   1.00
H2       0.21577    0.34220    1.04256   1.00
H2       0.23487    0.32582    0.99731   1.00
H2       0.34064    0.28817    0.95744   1.00
H2       0.31563    0.29088    1.00269   1.00
N1       0.17664    0.30867    1.00857   1.00
C6       0.14535    0.30159    1.03073   1.00
C6       0.16463    0.30786    0.97154   1.00
C6       0.11305    0.29567    1.00759   1.00
C6       0.12531    0.29967    0.96995   1.00
H3       0.14588    0.30042    1.06197   1.00
H3       0.18335    0.31263    0.94700   1.00
H3       0.08382    0.28920    1.01713   1.00
H3       0.10756    0.29689    0.94425   1.00
N1       0.34299    0.23669    0.99143   1.00
C6       0.35062    0.22739    1.02846   1.00
C6       0.35925    0.20904    0.96927   1.00
C6       0.37157    0.19312    1.03005   1.00
C6       0.37705    0.18144    0.99241   1.00
H3       0.34128    0.24429    1.05300   1.00
H3       0.35803    0.20862    0.93803   1.00
H3       0.38169    0.17827    1.05575   1.00
H3       0.39234    0.15571    0.98287   1.00
C4       0.24992    0.47915    0.75018   1.00
C4       0.25008    0.52085    0.74982   1.00
C3a      0.25981    0.45746    0.78436   1.00
C3       0.21863    0.54232    0.76546   1.00
C3       0.23979    0.45768    0.71655   1.00
C3a      0.28176    0.54254    0.73363   1.00
C2       0.24992    0.39488    0.74997   1.00
C2       0.24993    0.60512    0.74996   1.00
C3       0.25973    0.41595    0.78368   1.00
C3       0.21865    0.58363    0.76562   1.00
C3       0.23992    0.41637    0.71646   1.00
C3       0.28121    0.58405    0.73403   1.00
C5       0.27120    0.47772    0.82190   1.00
H1       0.19405    0.52691    0.77801   1.00
H1       0.26746    0.39979    0.80968   1.00
H1       0.19406    0.59901    0.77810   1.00
H1       0.23219    0.40099    0.68998   1.00
H1       0.30545    0.60021    0.72187   1.00
C5       0.31693    0.52228    0.71623   1.00
H1       0.23211    0.47309    0.69004   1.00
H2       0.34220    0.54256    0.71577   1.00
H2       0.32582    0.49731    0.73487   1.00
H2       0.28817    0.45744    0.84064   1.00
H2       0.29088    0.50269    0.81563   1.00
N1       0.30867    0.50857    0.67664   1.00
C6       0.30159    0.53073    0.64535   1.00
C6       0.30786    0.47154    0.66463   1.00
C6       0.29567    0.50759    0.61305   1.00
C6       0.29967    0.46995    0.62531   1.00
H3       0.30042    0.56197    0.64588   1.00
H3       0.31263    0.44700    0.68335   1.00
H3       0.28920    0.51713    0.58382   1.00
H3       0.29689    0.44425    0.60756   1.00
N1       0.23669    0.49143    0.84299   1.00
C6       0.22739    0.52846    0.85062   1.00
C6       0.20904    0.46927    0.85925   1.00
C6       0.19312    0.53005    0.87157   1.00
C6       0.18144    0.49241    0.87705   1.00
H3       0.24429    0.55300    0.84128   1.00
H3       0.20862    0.43803    0.85803   1.00
H3       0.17827    0.55575    0.88169   1.00
H3       0.15571    0.48287    0.89234   1.00
C4       0.02085    0.25018    0.75008   1.00
C4       -0.02085   0.24982    0.74992   1.00
C3a      0.04254    0.28436    0.74019   1.00
C3       -0.04232   0.26546    0.78137   1.00
C3       0.04232    0.21655    0.76021   1.00
C3a      -0.04254   0.23363    0.71824   1.00
C2       0.10512    0.24997    0.75008   1.00
C2       -0.10512   0.24996    0.75007   1.00
C3       0.08405    0.28368    0.74027   1.00
C3       -0.08363   0.26562    0.78135   1.00
C3       0.08363    0.21646    0.76008   1.00
C3       -0.08405   0.23403    0.71879   1.00
C5       0.02228    0.32190    0.72880   1.00
H1       -0.02691   0.27801    0.80595   1.00
H1       0.10021    0.30968    0.73254   1.00
H1       -0.09901   0.27810    0.80594   1.00
H1       0.09901    0.18998    0.76781   1.00
H1       -0.10021   0.22187    0.69455   1.00
C5       -0.02228   0.21623    0.68307   1.00
H1       0.02691    0.19004    0.76789   1.00
H2       -0.04256   0.21577    0.65780   1.00
H2       0.00269    0.23487    0.67418   1.00
H2       0.04256    0.34064    0.71183   1.00
H2       -0.00269   0.31563    0.70912   1.00
N1       -0.00857   0.17664    0.69133   1.00
C6       -0.03073   0.14535    0.69841   1.00
C6       0.02846    0.16463    0.69214   1.00
C6       -0.00759   0.11305    0.70433   1.00
C6       0.03005    0.12531    0.70033   1.00
H3       -0.06197   0.14588    0.69958   1.00
H3       0.05300    0.18335    0.68737   1.00
H3       -0.01713   0.08382    0.71080   1.00
H3       0.05575    0.10756    0.70311   1.00
N1       0.00857    0.34299    0.76331   1.00
C6       -0.02846   0.35062    0.77261   1.00
C6       0.03073    0.35925    0.79096   1.00
C6       -0.03005   0.37157    0.80688   1.00
C6       0.00759    0.37705    0.81856   1.00
H3       -0.05300   0.34128    0.75571   1.00
H3       0.06197    0.35803    0.79138   1.00
H3       -0.05575   0.38169    0.82173   1.00
H3       0.01713    0.39234    0.84429   1.00
C4       0.47915    0.25018    0.74992   1.00
C4       0.52085    0.24982    0.75008   1.00
C3a      0.45746    0.28436    0.75981   1.00
C3       0.54232    0.26546    0.71863   1.00
C3       0.45768    0.21655    0.73979   1.00
C3a      0.54254    0.23363    0.78176   1.00
C2       0.39488    0.24997    0.74992   1.00
C2       0.60512    0.24996    0.74993   1.00
C3       0.41595    0.28368    0.75973   1.00
C3       0.58363    0.26562    0.71865   1.00
C3       0.41637    0.21646    0.73992   1.00
C3       0.58405    0.23403    0.78121   1.00
C5       0.47772    0.32190    0.77120   1.00
H1       0.52691    0.27801    0.69405   1.00
H1       0.39979    0.30968    0.76746   1.00
H1       0.59901    0.27810    0.69406   1.00
H1       0.40099    0.18998    0.73219   1.00
H1       0.60021    0.22187    0.80545   1.00
C5       0.52228    0.21623    0.81693   1.00
H1       0.47309    0.19004    0.73211   1.00
H2       0.54256    0.21577    0.84220   1.00
H2       0.49731    0.23487    0.82582   1.00
H2       0.45744    0.34064    0.78817   1.00
H2       0.50269    0.31563    0.79088   1.00
N1       0.50857    0.17664    0.80867   1.00
C6       0.53073    0.14535    0.80159   1.00
C6       0.47154    0.16463    0.80786   1.00
C6       0.50759    0.11305    0.79567   1.00
C6       0.46995    0.12531    0.79967   1.00
H3       0.56197    0.14588    0.80042   1.00
H3       0.44700    0.18335    0.81263   1.00
H3       0.51713    0.08382    0.78920   1.00
H3       0.44425    0.10756    0.79689   1.00
N1       0.49143    0.34299    0.73669   1.00
C6       0.52846    0.35062    0.72739   1.00
C6       0.46927    0.35925    0.70904   1.00
C6       0.53005    0.37157    0.69312   1.00
C6       0.49241    0.37705    0.68144   1.00
H3       0.55300    0.34128    0.74429   1.00
H3       0.43803    0.35803    0.70862   1.00
H3       0.55575    0.38169    0.67827   1.00
H3       0.48287    0.39234    0.65571   1.00
C4       0.25008    0.02085    0.75018   1.00
C4       0.24992    -0.02085   0.74982   1.00
C3a      0.24019    0.04254    0.78436   1.00
C3       0.28137    -0.04232   0.76546   1.00
C3       0.26021    0.04232    0.71655   1.00
C3a      0.21824    -0.04254   0.73363   1.00
C2       0.25008    0.10512    0.74997   1.00
C2       0.25007    -0.10512   0.74996   1.00
C3       0.24027    0.08405    0.78368   1.00
C3       0.28135    -0.08363   0.76562   1.00
C3       0.26008    0.08363    0.71646   1.00
C3       0.21879    -0.08405   0.73403   1.00
C5       0.22880    0.02228    0.82190   1.00
H1       0.30595    -0.02691   0.77801   1.00
H1       0.23254    0.10021    0.80968   1.00
H1       0.30594    -0.09901   0.77810   1.00
H1       0.26781    0.09901    0.68998   1.00
H1       0.19455    -0.10021   0.72187   1.00
C5       0.18307    -0.02228   0.71623   1.00
H1       0.26789    0.02691    0.69004   1.00
H2       0.15780    -0.04256   0.71577   1.00
H2       0.17418    0.00269    0.73487   1.00
H2       0.21183    0.04256    0.84064   1.00
H2       0.20912    -0.00269   0.81563   1.00
N1       0.19133    -0.00857   0.67664   1.00
C6       0.19841    -0.03073   0.64535   1.00
C6       0.19214    0.02846    0.66463   1.00
C6       0.20433    -0.00759   0.61305   1.00
C6       0.20033    0.03005    0.62531   1.00
H3       0.19958    -0.06197   0.64588   1.00
H3       0.18737    0.05300    0.68335   1.00
H3       0.21080    -0.01713   0.58382   1.00
H3       0.20311    0.05575    0.60756   1.00
N1       0.26331    0.00857    0.84299   1.00
C6       0.27261    -0.02846   0.85062   1.00
C6       0.29096    0.03073    0.85925   1.00
C6       0.30688    -0.03005   0.87157   1.00
C6       0.31856    0.00759    0.87705   1.00
H3       0.25571    -0.05300   0.84128   1.00
H3       0.29138    0.06197    0.85803   1.00
H3       0.32173    -0.05575   0.88169   1.00
H3       0.34429    0.01713    0.89234   1.00
C4       0.25018    0.25008    0.52085   1.00
C4       0.24982    0.24992    0.47915   1.00
C3a      0.28436    0.24019    0.54254   1.00
C3       0.26546    0.28137    0.45768   1.00
C3       0.21655    0.26021    0.54232   1.00
C3a      0.23363    0.21824    0.45746   1.00
C2       0.24997    0.25008    0.60512   1.00
C2       0.24996    0.25007    0.39488   1.00
C3       0.28368    0.24027    0.58405   1.00
C3       0.26562    0.28135    0.41637   1.00
C3       0.21646    0.26008    0.58363   1.00
C3       0.23403    0.21879    0.41595   1.00
C5       0.32190    0.22880    0.52228   1.00
H1       0.27801    0.30595    0.47309   1.00
H1       0.30968    0.23254    0.60021   1.00
H1       0.27810    0.30594    0.40099   1.00
H1       0.18998    0.26781    0.59901   1.00
H1       0.22187    0.19455    0.39979   1.00
C5       0.21623    0.18307    0.47772   1.00
H1       0.19004    0.26789    0.52691   1.00
H2       0.21577    0.15780    0.45744   1.00
H2       0.23487    0.17418    0.50269   1.00
H2       0.34064    0.21183    0.54256   1.00
H2       0.31563    0.20912    0.49731   1.00
N1       0.17664    0.19133    0.49143   1.00
C6       0.14535    0.19841    0.46927   1.00
C6       0.16463    0.19214    0.52846   1.00
C6       0.11305    0.20433    0.49241   1.00
C6       0.12531    0.20033    0.53005   1.00
H3       0.14588    0.19958    0.43803   1.00
H3       0.18335    0.18737    0.55300   1.00
H3       0.08382    0.21080    0.48287   1.00
H3       0.10756    0.20311    0.55575   1.00
N1       0.34299    0.26331    0.50857   1.00
C6       0.35062    0.27261    0.47154   1.00
C6       0.35925    0.29096    0.53073   1.00
C6       0.37157    0.30688    0.46995   1.00
C6       0.37705    0.31856    0.50759   1.00
H3       0.34128    0.25571    0.44700   1.00
H3       0.35803    0.29138    0.56197   1.00
H3       0.38169    0.32173    0.44425   1.00
H3       0.39234    0.34429    0.51713   1.00
C4       0.25018    0.74992    0.47915   1.00
C4       0.24982    0.75008    0.52085   1.00
C3a      0.28436    0.75981    0.45746   1.00
C3       0.26546    0.71863    0.54232   1.00
C3       0.21655    0.73979    0.45768   1.00
C3a      0.23363    0.78176    0.54254   1.00
C2       0.24997    0.74992    0.39488   1.00
C2       0.24996    0.74993    0.60512   1.00
C3       0.28368    0.75973    0.41595   1.00
C3       0.26562    0.71865    0.58363   1.00
C3       0.21646    0.73992    0.41637   1.00
C3       0.23403    0.78121    0.58405   1.00
C5       0.32190    0.77120    0.47772   1.00
H1       0.27801    0.69405    0.52691   1.00
H1       0.30968    0.76746    0.39979   1.00
H1       0.27810    0.69406    0.59901   1.00
H1       0.18998    0.73219    0.40099   1.00
H1       0.22187    0.80545    0.60021   1.00
C5       0.21623    0.81693    0.52228   1.00
H1       0.19004    0.73211    0.47309   1.00
H2       0.21577    0.84220    0.54256   1.00
H2       0.23487    0.82582    0.49731   1.00
H2       0.34064    0.78817    0.45744   1.00
H2       0.31563    0.79088    0.50269   1.00
N1       0.17664    0.80867    0.50857   1.00
C6       0.14535    0.80159    0.53073   1.00
C6       0.16463    0.80786    0.47154   1.00
C6       0.11305    0.79567    0.50759   1.00
C6       0.12531    0.79967    0.46995   1.00
H3       0.14588    0.80042    0.56197   1.00
H3       0.18335    0.81263    0.44700   1.00
H3       0.08382    0.78920    0.51713   1.00
H3       0.10756    0.79689    0.44425   1.00
N1       0.34299    0.73669    0.49143   1.00
C6       0.35062    0.72739    0.52846   1.00
C6       0.35925    0.70904    0.46927   1.00
C6       0.37157    0.69312    0.53005   1.00
C6       0.37705    0.68144    0.49241   1.00
H3       0.34128    0.74429    0.55300   1.00
H3       0.35803    0.70862    0.43803   1.00
H3       0.38169    0.67827    0.55575   1.00
H3       0.39234    0.65571    0.48287   1.00
C4       0.24992    0.97915    0.25018   1.00
C4       0.25008    1.02085    0.24982   1.00
C3a      0.25981    0.95746    0.28436   1.00
C3       0.21863    1.04232    0.26546   1.00
C3       0.23979    0.95768    0.21655   1.00
C3a      0.28176    1.04254    0.23363   1.00
C2       0.24992    0.89488    0.24997   1.00
C2       0.24993    1.10512    0.24996   1.00
C3       0.25973    0.91595    0.28368   1.00
C3       0.21865    1.08363    0.26562   1.00
C3       0.23992    0.91637    0.21646   1.00
C3       0.28121    1.08405    0.23403   1.00
C5       0.27120    0.97772    0.32190   1.00
H1       0.19405    1.02691    0.27801   1.00
H1       0.26746    0.89979    0.30968   1.00
H1       0.19406    1.09901    0.27810   1.00
H1       0.23219    0.90099    0.18998   1.00
H1       0.30545    1.10021    0.22187   1.00
C5       0.31693    1.02228    0.21623   1.00
H1       0.23211    0.97309    0.19004   1.00
H2       0.34220    1.04256    0.21577   1.00
H2       0.32582    0.99731    0.23487   1.00
H2       0.28817    0.95744    0.34064   1.00
H2       0.29088    1.00269    0.31563   1.00
N1       0.30867    1.00857    0.17664   1.00
C6       0.30159    1.03073    0.14535   1.00
C6       0.30786    0.97154    0.16463   1.00
C6       0.29567    1.00759    0.11305   1.00
C6       0.29967    0.96995    0.12531   1.00
H3       0.30042    1.06197    0.14588   1.00
H3       0.31263    0.94700    0.18335   1.00
H3       0.28920    1.01713    0.08382   1.00
H3       0.29689    0.94425    0.10756   1.00
N1       0.23669    0.99143    0.34299   1.00
C6       0.22739    1.02846    0.35062   1.00
C6       0.20904    0.96927    0.35925   1.00
C6       0.19312    1.03005    0.37157   1.00
C6       0.18144    0.99241    0.37705   1.00
H3       0.24429    1.05300    0.34128   1.00
H3       0.20862    0.93803    0.35803   1.00
H3       0.17827    1.05575    0.38169   1.00
H3       0.15571    0.98287    0.39234   1.00
C4       0.02085    0.75018    0.25008   1.00
C4       -0.02085   0.74982    0.24992   1.00
C3a      0.04254    0.78436    0.24019   1.00
C3       -0.04232   0.76546    0.28137   1.00
C3       0.04232    0.71655    0.26021   1.00
C3a      -0.04254   0.73363    0.21824   1.00
C2       0.10512    0.74997    0.25008   1.00
C2       -0.10512   0.74996    0.25007   1.00
C3       0.08405    0.78368    0.24027   1.00
C3       -0.08363   0.76562    0.28135   1.00
C3       0.08363    0.71646    0.26008   1.00
C3       -0.08405   0.73403    0.21879   1.00
C5       0.02228    0.82190    0.22880   1.00
H1       -0.02691   0.77801    0.30595   1.00
H1       0.10021    0.80968    0.23254   1.00
H1       -0.09901   0.77810    0.30594   1.00
H1       0.09901    0.68998    0.26781   1.00
H1       -0.10021   0.72187    0.19455   1.00
C5       -0.02228   0.71623    0.18307   1.00
H1       0.02691    0.69004    0.26789   1.00
H2       -0.04256   0.71577    0.15780   1.00
H2       0.00269    0.73487    0.17418   1.00
H2       0.04256    0.84064    0.21183   1.00
H2       -0.00269   0.81563    0.20912   1.00
N1       -0.00857   0.67664    0.19133   1.00
C6       -0.03073   0.64535    0.19841   1.00
C6       0.02846    0.66463    0.19214   1.00
C6       -0.00759   0.61305    0.20433   1.00
C6       0.03005    0.62531    0.20033   1.00
H3       -0.06197   0.64588    0.19958   1.00
H3       0.05300    0.68335    0.18737   1.00
H3       -0.01713   0.58382    0.21080   1.00
H3       0.05575    0.60756    0.20311   1.00
N1       0.00857    0.84299    0.26331   1.00
C6       -0.02846   0.85062    0.27261   1.00
C6       0.03073    0.85925    0.29096   1.00
C6       -0.03005   0.87157    0.30688   1.00
C6       0.00759    0.87705    0.31856   1.00
H3       -0.05300   0.84128    0.25571   1.00
H3       0.06197    0.85803    0.29138   1.00
H3       -0.05575   0.88169    0.32173   1.00
H3       0.01713    0.89234    0.34429   1.00
C4       0.47915    0.75018    0.24992   1.00
C4       0.52085    0.74982    0.25008   1.00
C3a      0.45746    0.78436    0.25981   1.00
C3       0.54232    0.76546    0.21863   1.00
C3       0.45768    0.71655    0.23979   1.00
C3a      0.54254    0.73363    0.28176   1.00
C2       0.39488    0.74997    0.24992   1.00
C2       0.60512    0.74996    0.24993   1.00
C3       0.41595    0.78368    0.25973   1.00
C3       0.58363    0.76562    0.21865   1.00
C3       0.41637    0.71646    0.23992   1.00
C3       0.58405    0.73403    0.28121   1.00
C5       0.47772    0.82190    0.27120   1.00
H1       0.52691    0.77801    0.19405   1.00
H1       0.39979    0.80968    0.26746   1.00
H1       0.59901    0.77810    0.19406   1.00
H1       0.40099    0.68998    0.23219   1.00
H1       0.60021    0.72187    0.30545   1.00
C5       0.52228    0.71623    0.31693   1.00
H1       0.47309    0.69004    0.23211   1.00
H2       0.54256    0.71577    0.34220   1.00
H2       0.49731    0.73487    0.32582   1.00
H2       0.45744    0.84064    0.28817   1.00
H2       0.50269    0.81563    0.29088   1.00
N1       0.50857    0.67664    0.30867   1.00
C6       0.53073    0.64535    0.30159   1.00
C6       0.47154    0.66463    0.30786   1.00
C6       0.50759    0.61305    0.29567   1.00
C6       0.46995    0.62531    0.29967   1.00
H3       0.56197    0.64588    0.30042   1.00
H3       0.44700    0.68335    0.31263   1.00
H3       0.51713    0.58382    0.28920   1.00
H3       0.44425    0.60756    0.29689   1.00
N1       0.49143    0.84299    0.23669   1.00
C6       0.52846    0.85062    0.22739   1.00
C6       0.46927    0.85925    0.20904   1.00
C6       0.53005    0.87157    0.19312   1.00
C6       0.49241    0.87705    0.18144   1.00
H3       0.55300    0.84128    0.24429   1.00
H3       0.43803    0.85803    0.20862   1.00
H3       0.55575    0.88169    0.17827   1.00
H3       0.48287    0.89234    0.15571   1.00
C4       0.25008    0.52085    0.25018   1.00
C4       0.24992    0.47915    0.24982   1.00
C3a      0.24019    0.54254    0.28436   1.00
C3       0.28137    0.45768    0.26546   1.00
C3       0.26021    0.54232    0.21655   1.00
C3a      0.21824    0.45746    0.23363   1.00
C2       0.25008    0.60512    0.24997   1.00
C2       0.25007    0.39488    0.24996   1.00
C3       0.24027    0.58405    0.28368   1.00
C3       0.28135    0.41637    0.26562   1.00
C3       0.26008    0.58363    0.21646   1.00
C3       0.21879    0.41595    0.23403   1.00
C5       0.22880    0.52228    0.32190   1.00
H1       0.30595    0.47309    0.27801   1.00
H1       0.23254    0.60021    0.30968   1.00
H1       0.30594    0.40099    0.27810   1.00
H1       0.26781    0.59901    0.18998   1.00
H1       0.19455    0.39979    0.22187   1.00
C5       0.18307    0.47772    0.21623   1.00
H1       0.26789    0.52691    0.19004   1.00
H2       0.15780    0.45744    0.21577   1.00
H2       0.17418    0.50269    0.23487   1.00
H2       0.21183    0.54256    0.34064   1.00
H2       0.20912    0.49731    0.31563   1.00
N1       0.19133    0.49143    0.17664   1.00
C6       0.19841    0.46927    0.14535   1.00
C6       0.19214    0.52846    0.16463   1.00
C6       0.20433    0.49241    0.11305   1.00
C6       0.20033    0.53005    0.12531   1.00
H3       0.19958    0.43803    0.14588   1.00
H3       0.18737    0.55300    0.18335   1.00
H3       0.21080    0.48287    0.08382   1.00
H3       0.20311    0.55575    0.10756   1.00
N1       0.26331    0.50857    0.34299   1.00
C6       0.27261    0.47154    0.35062   1.00
C6       0.29096    0.53073    0.35925   1.00
C6       0.30688    0.46995    0.37157   1.00
C6       0.31856    0.50759    0.37705   1.00
H3       0.25571    0.44700    0.34128   1.00
H3       0.29138    0.56197    0.35803   1.00
H3       0.32173    0.44425    0.38169   1.00
H3       0.34429    0.51713    0.39234   1.00
C4       0.25018    0.75008    0.02085   1.00
C4       0.24982    0.74992    -0.02085   1.00
C3a      0.28436    0.74019    0.04254   1.00
C3       0.26546    0.78137    -0.04232   1.00
C3       0.21655    0.76021    0.04232   1.00
C3a      0.23363    0.71824    -0.04254   1.00
C2       0.24997    0.75008    0.10512   1.00
C2       0.24996    0.75007    -0.10512   1.00
C3       0.28368    0.74027    0.08405   1.00
C3       0.26562    0.78135    -0.08363   1.00
C3       0.21646    0.76008    0.08363   1.00
C3       0.23403    0.71879    -0.08405   1.00
C5       0.32190    0.72880    0.02228   1.00
H1       0.27801    0.80595    -0.02691   1.00
H1       0.30968    0.73254    0.10021   1.00
H1       0.27810    0.80594    -0.09901   1.00
H1       0.18998    0.76781    0.09901   1.00
H1       0.22187    0.69455    -0.10021   1.00
C5       0.21623    0.68307    -0.02228   1.00
H1       0.19004    0.76789    0.02691   1.00
H2       0.21577    0.65780    -0.04256   1.00
H2       0.23487    0.67418    0.00269   1.00
H2       0.34064    0.71183    0.04256   1.00
H2       0.31563    0.70912    -0.00269   1.00
N1       0.17664    0.69133    -0.00857   1.00
C6       0.14535    0.69841    -0.03073   1.00
C6       0.16463    0.69214    0.02846   1.00
C6       0.11305    0.70433    -0.00759   1.00
C6       0.12531    0.70033    0.03005   1.00
H3       0.14588    0.69958    -0.06197   1.00
H3       0.18335    0.68737    0.05300   1.00
H3       0.08382    0.71080    -0.01713   1.00
H3       0.10756    0.70311    0.05575   1.00
N1       0.34299    0.76331    0.00857   1.00
C6       0.35062    0.77261    -0.02846   1.00
C6       0.35925    0.79096    0.03073   1.00
C6       0.37157    0.80688    -0.03005   1.00
C6       0.37705    0.81856    0.00759   1.00
H3       0.34128    0.75571    -0.05300   1.00
H3       0.35803    0.79138    0.06197   1.00
H3       0.38169    0.82173    -0.05575   1.00
H3       0.39234    0.84429    0.01713   1.00
C4       0.75018    0.24992    0.47915   1.00
C4       0.74982    0.25008    0.52085   1.00
C3a      0.78436    0.25981    0.45746   1.00
C3       0.76546    0.21863    0.54232   1.00
C3       0.71655    0.23979    0.45768   1.00
C3a      0.73363    0.28176    0.54254   1.00
C2       0.74997    0.24992    0.39488   1.00
C2       0.74996    0.24993    0.60512   1.00
C3       0.78368    0.25973    0.41595   1.00
C3       0.76562    0.21865    0.58363   1.00
C3       0.71646    0.23992    0.41637   1.00
C3       0.73403    0.28121    0.58405   1.00
C5       0.82190    0.27120    0.47772   1.00
H1       0.77801    0.19405    0.52691   1.00
H1       0.80968    0.26746    0.39979   1.00
H1       0.77810    0.19406    0.59901   1.00
H1       0.68998    0.23219    0.40099   1.00
H1       0.72187    0.30545    0.60021   1.00
C5       0.71623    0.31693    0.52228   1.00
H1       0.69004    0.23211    0.47309   1.00
H2       0.71577    0.34220    0.54256   1.00
H2       0.73487    0.32582    0.49731   1.00
H2       0.84064    0.28817    0.45744   1.00
H2       0.81563    0.29088    0.50269   1.00
N1       0.67664    0.30867    0.50857   1.00
C6       0.64535    0.30159    0.53073   1.00
C6       0.66463    0.30786    0.47154   1.00
C6       0.61305    0.29567    0.50759   1.00
C6       0.62531    0.29967    0.46995   1.00
H3       0.64588    0.30042    0.56197   1.00
H3       0.68335    0.31263    0.44700   1.00
H3       0.58382    0.28920    0.51713   1.00
H3       0.60756    0.29689    0.44425   1.00
N1       0.84299    0.23669    0.49143   1.00
C6       0.85062    0.22739    0.52846   1.00
C6       0.85925    0.20904    0.46927   1.00
C6       0.87157    0.19312    0.53005   1.00
C6       0.87705    0.18144    0.49241   1.00
H3       0.84128    0.24429    0.55300   1.00
H3       0.85803    0.20862    0.43803   1.00
H3       0.88169    0.17827    0.55575   1.00
H3       0.89234    0.15571    0.48287   1.00
C4       0.74992    0.47915    0.25018   1.00
C4       0.75008    0.52085    0.24982   1.00
C3a      0.75981    0.45746    0.28436   1.00
C3       0.71863    0.54232    0.26546   1.00
C3       0.73979    0.45768    0.21655   1.00
C3a      0.78176    0.54254    0.23363   1.00
C2       0.74992    0.39488    0.24997   1.00
C2       0.74993    0.60512    0.24996   1.00
C3       0.75973    0.41595    0.28368   1.00
C3       0.71865    0.58363    0.26562   1.00
C3       0.73992    0.41637    0.21646   1.00
C3       0.78121    0.58405    0.23403   1.00
C5       0.77120    0.47772    0.32190   1.00
H1       0.69405    0.52691    0.27801   1.00
H1       0.76746    0.39979    0.30968   1.00
H1       0.69406    0.59901    0.27810   1.00
H1       0.73219    0.40099    0.18998   1.00
H1       0.80545    0.60021    0.22187   1.00
C5       0.81693    0.52228    0.21623   1.00
H1       0.73211    0.47309    0.19004   1.00
H2       0.84220    0.54256    0.21577   1.00
H2       0.82582    0.49731    0.23487   1.00
H2       0.78817    0.45744    0.34064   1.00
H2       0.79088    0.50269    0.31563   1.00
N1       0.80867    0.50857    0.17664   1.00
C6       0.80159    0.53073    0.14535   1.00
C6       0.80786    0.47154    0.16463   1.00
C6       0.79567    0.50759    0.11305   1.00
C6       0.79967    0.46995    0.12531   1.00
H3       0.80042    0.56197    0.14588   1.00
H3       0.81263    0.44700    0.18335   1.00
H3       0.78920    0.51713    0.08382   1.00
H3       0.79689    0.44425    0.10756   1.00
N1       0.73669    0.49143    0.34299   1.00
C6       0.72739    0.52846    0.35062   1.00
C6       0.70904    0.46927    0.35925   1.00
C6       0.69312    0.53005    0.37157   1.00
C6       0.68144    0.49241    0.37705   1.00
H3       0.74429    0.55300    0.34128   1.00
H3       0.70862    0.43803    0.35803   1.00
H3       0.67827    0.55575    0.38169   1.00
H3       0.65571    0.48287    0.39234   1.00
C4       0.52085    0.25018    0.25008   1.00
C4       0.47915    0.24982    0.24992   1.00
C3a      0.54254    0.28436    0.24019   1.00
C3       0.45768    0.26546    0.28137   1.00
C3       0.54232    0.21655    0.26021   1.00
C3a      0.45746    0.23363    0.21824   1.00
C2       0.60512    0.24997    0.25008   1.00
C2       0.39488    0.24996    0.25007   1.00
C3       0.58405    0.28368    0.24027   1.00
C3       0.41637    0.26562    0.28135   1.00
C3       0.58363    0.21646    0.26008   1.00
C3       0.41595    0.23403    0.21879   1.00
C5       0.52228    0.32190    0.22880   1.00
H1       0.47309    0.27801    0.30595   1.00
H1       0.60021    0.30968    0.23254   1.00
H1       0.40099    0.27810    0.30594   1.00
H1       0.59901    0.18998    0.26781   1.00
H1       0.39979    0.22187    0.19455   1.00
C5       0.47772    0.21623    0.18307   1.00
H1       0.52691    0.19004    0.26789   1.00
H2       0.45744    0.21577    0.15780   1.00
H2       0.50269    0.23487    0.17418   1.00
H2       0.54256    0.34064    0.21183   1.00
H2       0.49731    0.31563    0.20912   1.00
N1       0.49143    0.17664    0.19133   1.00
C6       0.46927    0.14535    0.19841   1.00
C6       0.52846    0.16463    0.19214   1.00
C6       0.49241    0.11305    0.20433   1.00
C6       0.53005    0.12531    0.20033   1.00
H3       0.43803    0.14588    0.19958   1.00
H3       0.55300    0.18335    0.18737   1.00
H3       0.48287    0.08382    0.21080   1.00
H3       0.55575    0.10756    0.20311   1.00
N1       0.50857    0.34299    0.26331   1.00
C6       0.47154    0.35062    0.27261   1.00
C6       0.53073    0.35925    0.29096   1.00
C6       0.46995    0.37157    0.30688   1.00
C6       0.50759    0.37705    0.31856   1.00
H3       0.44700    0.34128    0.25571   1.00
H3       0.56197    0.35803    0.29138   1.00
H3       0.44425    0.38169    0.32173   1.00
H3       0.51713    0.39234    0.34429   1.00
C4       0.97915    0.25018    0.24992   1.00
C4       1.02085    0.24982    0.25008   1.00
C3a      0.95746    0.28436    0.25981   1.00
C3       1.04232    0.26546    0.21863   1.00
C3       0.95768    0.21655    0.23979   1.00
C3a      1.04254    0.23363    0.28176   1.00
C2       0.89488    0.24997    0.24992   1.00
C2       1.10512    0.24996    0.24993   1.00
C3       0.91595    0.28368    0.25973   1.00
C3       1.08363    0.26562    0.21865   1.00
C3       0.91637    0.21646    0.23992   1.00
C3       1.08405    0.23403    0.28121   1.00
C5       0.97772    0.32190    0.27120   1.00
H1       1.02691    0.27801    0.19405   1.00
H1       0.89979    0.30968    0.26746   1.00
H1       1.09901    0.27810    0.19406   1.00
H1       0.90099    0.18998    0.23219   1.00
H1       1.10021    0.22187    0.30545   1.00
C5       1.02228    0.21623    0.31693   1.00
H1       0.97309    0.19004    0.23211   1.00
H2       1.04256    0.21577    0.34220   1.00
H2       0.99731    0.23487    0.32582   1.00
H2       0.95744    0.34064    0.28817   1.00
H2       1.00269    0.31563    0.29088   1.00
N1       1.00857    0.17664    0.30867   1.00
C6       1.03073    0.14535    0.30159   1.00
C6       0.97154    0.16463    0.30786   1.00
C6       1.00759    0.11305    0.29567   1.00
C6       0.96995    0.12531    0.29967   1.00
H3       1.06197    0.14588    0.30042   1.00
H3       0.94700    0.18335    0.31263   1.00
H3       1.01713    0.08382    0.28920   1.00
H3       0.94425    0.10756    0.29689   1.00
N1       0.99143    0.34299    0.23669   1.00
C6       1.02846    0.35062    0.22739   1.00
C6       0.96927    0.35925    0.20904   1.00
C6       1.03005    0.37157    0.19312   1.00
C6       0.99241    0.37705    0.18144   1.00
H3       1.05300    0.34128    0.24429   1.00
H3       0.93803    0.35803    0.20862   1.00
H3       1.05575    0.38169    0.17827   1.00
H3       0.98287    0.39234    0.15571   1.00
C4       0.75008    0.02085    0.25018   1.00
C4       0.74992    -0.02085   0.24982   1.00
C3a      0.74019    0.04254    0.28436   1.00
C3       0.78137    -0.04232   0.26546   1.00
C3       0.76021    0.04232    0.21655   1.00
C3a      0.71824    -0.04254   0.23363   1.00
C2       0.75008    0.10512    0.24997   1.00
C2       0.75007    -0.10512   0.24996   1.00
C3       0.74027    0.08405    0.28368   1.00
C3       0.78135    -0.08363   0.26562   1.00
C3       0.76008    0.08363    0.21646   1.00
C3       0.71879    -0.08405   0.23403   1.00
C5       0.72880    0.02228    0.32190   1.00
H1       0.80595    -0.02691   0.27801   1.00
H1       0.73254    0.10021    0.30968   1.00
H1       0.80594    -0.09901   0.27810   1.00
H1       0.76781    0.09901    0.18998   1.00
H1       0.69455    -0.10021   0.22187   1.00
C5       0.68307    -0.02228   0.21623   1.00
H1       0.76789    0.02691    0.19004   1.00
H2       0.65780    -0.04256   0.21577   1.00
H2       0.67418    0.00269    0.23487   1.00
H2       0.71183    0.04256    0.34064   1.00
H2       0.70912    -0.00269   0.31563   1.00
N1       0.69133    -0.00857   0.17664   1.00
C6       0.69841    -0.03073   0.14535   1.00
C6       0.69214    0.02846    0.16463   1.00
C6       0.70433    -0.00759   0.11305   1.00
C6       0.70033    0.03005    0.12531   1.00
H3       0.69958    -0.06197   0.14588   1.00
H3       0.68737    0.05300    0.18335   1.00
H3       0.71080    -0.01713   0.08382   1.00
H3       0.70311    0.05575    0.10756   1.00
N1       0.76331    0.00857    0.34299   1.00
C6       0.77261    -0.02846   0.35062   1.00
C6       0.79096    0.03073    0.35925   1.00
C6       0.80688    -0.03005   0.37157   1.00
C6       0.81856    0.00759    0.37705   1.00
H3       0.75571    -0.05300   0.34128   1.00
H3       0.79138    0.06197    0.35803   1.00
H3       0.82173    -0.05575   0.38169   1.00
H3       0.84429    0.01713    0.39234   1.00
C4       0.75018    0.25008    0.02085   1.00
C4       0.74982    0.24992    -0.02085   1.00
C3a      0.78436    0.24019    0.04254   1.00
C3       0.76546    0.28137    -0.04232   1.00
C3       0.71655    0.26021    0.04232   1.00
C3a      0.73363    0.21824    -0.04254   1.00
C2       0.74997    0.25008    0.10512   1.00
C2       0.74996    0.25007    -0.10512   1.00
C3       0.78368    0.24027    0.08405   1.00
C3       0.76562    0.28135    -0.08363   1.00
C3       0.71646    0.26008    0.08363   1.00
C3       0.73403    0.21879    -0.08405   1.00
C5       0.82190    0.22880    0.02228   1.00
H1       0.77801    0.30595    -0.02691   1.00
H1       0.80968    0.23254    0.10021   1.00
H1       0.77810    0.30594    -0.09901   1.00
H1       0.68998    0.26781    0.09901   1.00
H1       0.72187    0.19455    -0.10021   1.00
C5       0.71623    0.18307    -0.02228   1.00
H1       0.69004    0.26789    0.02691   1.00
H2       0.71577    0.15780    -0.04256   1.00
H2       0.73487    0.17418    0.00269   1.00
H2       0.84064    0.21183    0.04256   1.00
H2       0.81563    0.20912    -0.00269   1.00
N1       0.67664    0.19133    -0.00857   1.00
C6       0.64535    0.19841    -0.03073   1.00
C6       0.66463    0.19214    0.02846   1.00
C6       0.61305    0.20433    -0.00759   1.00
C6       0.62531    0.20033    0.03005   1.00
H3       0.64588    0.19958    -0.06197   1.00
H3       0.68335    0.18737    0.05300   1.00
H3       0.58382    0.21080    -0.01713   1.00
H3       0.60756    0.20311    0.05575   1.00
N1       0.84299    0.26331    0.00857   1.00
C6       0.85062    0.27261    -0.02846   1.00
C6       0.85925    0.29096    0.03073   1.00
C6       0.87157    0.30688    -0.03005   1.00
C6       0.87705    0.31856    0.00759   1.00
H3       0.84128    0.25571    -0.05300   1.00
H3       0.85803    0.29138    0.06197   1.00
H3       0.88169    0.32173    -0.05575   1.00
H3       0.89234    0.34429    0.01713   1.00
C4       0.91518    0.91492    1.14415   1.00
C4       0.91482    0.91508    1.18585   1.00
C3a      0.94936    0.92481    1.12246   1.00
C3       0.93046    0.88363    1.20732   1.00
C3       0.88155    0.90479    1.12268   1.00
C3a      0.89863    0.94676    1.20754   1.00
C2       0.91497    0.91492    1.05988   1.00
C2       0.91496    0.91493    1.27012   1.00
C3       0.94868    0.92473    1.08095   1.00
C3       0.93062    0.88365    1.24863   1.00
C3       0.88146    0.90492    1.08137   1.00
C3       0.89903    0.94621    1.24905   1.00
C5       0.98690    0.93620    1.14272   1.00
H1       0.94301    0.85905    1.19191   1.00
H1       0.97468    0.93246    1.06479   1.00
H1       0.94310    0.85906    1.26401   1.00
H1       0.85498    0.89719    1.06599   1.00
H1       0.88687    0.97045    1.26521   1.00
C5       0.88123    0.98193    1.18728   1.00
H1       0.85504    0.89711    1.13809   1.00
H2       0.88077    1.00720    1.20756   1.00
H2       0.89987    0.99082    1.16231   1.00
H2       1.00564    0.95317    1.12244   1.00
H2       0.98063    0.95588    1.16769   1.00
N1       0.84164    0.97367    1.17357   1.00
C6       0.81035    0.96659    1.19573   1.00
C6       0.82963    0.97286    1.13654   1.00
C6       0.77805    0.96067    1.17259   1.00
C6       0.79031    0.96467    1.13495   1.00
H3       0.81088    0.96542    1.22697   1.00
H3       0.84835    0.97763    1.11200   1.00
H3       0.74882    0.95420    1.18213   1.00
H3       0.77256    0.96189    1.10925   1.00
N1       1.00799    0.90169    1.15643   1.00
C6       1.01562    0.89239    1.19346   1.00
C6       1.02425    0.87404    1.13427   1.00
C6       1.03657    0.85812    1.19505   1.00
C6       1.04205    0.84644    1.15741   1.00
H3       1.00628    0.90929    1.21800   1.00
H3       1.02303    0.87362    1.10303   1.00
H3       1.04669    0.84327    1.22075   1.00
H3       1.05734    0.82071    1.14787   1.00
C4       0.91492    1.14415    0.91518   1.00
C4       0.91508    1.18585    0.91482   1.00
C3a      0.92481    1.12246    0.94936   1.00
C3       0.88363    1.20732    0.93046   1.00
C3       0.90479    1.12268    0.88155   1.00
C3a      0.94676    1.20754    0.89863   1.00
C2       0.91492    1.05988    0.91497   1.00
C2       0.91493    1.27012    0.91496   1.00
C3       0.92473    1.08095    0.94868   1.00
C3       0.88365    1.24863    0.93062   1.00
C3       0.90492    1.08137    0.88146   1.00
C3       0.94621    1.24905    0.89903   1.00
C5       0.93620    1.14272    0.98690   1.00
H1       0.85905    1.19191    0.94301   1.00
H1       0.93246    1.06479    0.97468   1.00
H1       0.85906    1.26401    0.94310   1.00
H1       0.89719    1.06599    0.85498   1.00
H1       0.97045    1.26521    0.88687   1.00
C5       0.98193    1.18728    0.88123   1.00
H1       0.89711    1.13809    0.85504   1.00
H2       1.00720    1.20756    0.88077   1.00
H2       0.99082    1.16231    0.89987   1.00
H2       0.95317    1.12244    1.00564   1.00
H2       0.95588    1.16769    0.98063   1.00
N1       0.97367    1.17357    0.84164   1.00
C6       0.96659    1.19573    0.81035   1.00
C6       0.97286    1.13654    0.82963   1.00
C6       0.96067    1.17259    0.77805   1.00
C6       0.96467    1.13495    0.79031   1.00
H3       0.96542    1.22697    0.81088   1.00
H3       0.97763    1.11200    0.84835   1.00
H3       0.95420    1.18213    0.74882   1.00
H3       0.96189    1.10925    0.77256   1.00
N1       0.90169    1.15643    1.00799   1.00
C6       0.89239    1.19346    1.01562   1.00
C6       0.87404    1.13427    1.02425   1.00
C6       0.85812    1.19505    1.03657   1.00
C6       0.84644    1.15741    1.04205   1.00
H3       0.90929    1.21800    1.00628   1.00
H3       0.87362    1.10303    1.02303   1.00
H3       0.84327    1.22075    1.04669   1.00
H3       0.82071    1.14787    1.05734   1.00
C4       0.68585    0.91518    0.91508   1.00
C4       0.64415    0.91482    0.91492   1.00
C3a      0.70754    0.94936    0.90519   1.00
C3       0.62268    0.93046    0.94637   1.00
C3       0.70732    0.88155    0.92521   1.00
C3a      0.62246    0.89863    0.88324   1.00
C2       0.77012    0.91497    0.91508   1.00
C2       0.55988    0.91496    0.91507   1.00
C3       0.74905    0.94868    0.90527   1.00
C3       0.58137    0.93062    0.94635   1.00
C3       0.74863    0.88146    0.92508   1.00
C3       0.58095    0.89903    0.88379   1.00
C5       0.68728    0.98690    0.89380   1.00
H1       0.63809    0.94301    0.97095   1.00
H1       0.76521    0.97468    0.89754   1.00
H1       0.56599    0.94310    0.97094   1.00
H1       0.76401    0.85498    0.93281   1.00
H1       0.56479    0.88687    0.85955   1.00
C5       0.64272    0.88123    0.84807   1.00
H1       0.69191    0.85504    0.93289   1.00
H2       0.62244    0.88077    0.82280   1.00
H2       0.66769    0.89987    0.83918   1.00
H2       0.70756    1.00564    0.87683   1.00
H2       0.66231    0.98063    0.87412   1.00
N1       0.65643    0.84164    0.85633   1.00
C6       0.63427    0.81035    0.86341   1.00
C6       0.69346    0.82963    0.85714   1.00
C6       0.65741    0.77805    0.86933   1.00
C6       0.69505    0.79031    0.86533   1.00
H3       0.60303    0.81088    0.86458   1.00
H3       0.71800    0.84835    0.85237   1.00
H3       0.64787    0.74882    0.87580   1.00
H3       0.72075    0.77256    0.86811   1.00
N1       0.67357    1.00799    0.92831   1.00
C6       0.63654    1.01562    0.93761   1.00
C6       0.69573    1.02425    0.95596   1.00
C6       0.63495    1.03657    0.97188   1.00
C6       0.67259    1.04205    0.98356   1.00
H3       0.61200    1.00628    0.92071   1.00
H3       0.72697    1.02303    0.95638   1.00
H3       0.60925    1.04669    0.98673   1.00
H3       0.68213    1.05734    1.00929   1.00
C4       1.14415    0.91518    0.91492   1.00
C4       1.18585    0.91482    0.91508   1.00
C3a      1.12246    0.94936    0.92481   1.00
C3       1.20732    0.93046    0.88363   1.00
C3       1.12268    0.88155    0.90479   1.00
C3a      1.20754    0.89863    0.94676   1.00
C2       1.05988    0.91497    0.91492   1.00
C2       1.27012    0.91496    0.91493   1.00
C3       1.08095    0.94868    0.92473   1.00
C3       1.24863    0.93062    0.88365   1.00
C3       1.08137    0.88146    0.90492   1.00
C3       1.24905    0.89903    0.94621   1.00
C5       1.14272    0.98690    0.93620   1.00
H1       1.19191    0.94301    0.85905   1.00
H1       1.06479    0.97468    0.93246   1.00
H1       1.26401    0.94310    0.85906   1.00
H1       1.06599    0.85498    0.89719   1.00
H1       1.26521    0.88687    0.97045   1.00
C5       1.18728    0.88123    0.98193   1.00
H1       1.13809    0.85504    0.89711   1.00
H2       1.20756    0.88077    1.00720   1.00
H2       1.16231    0.89987    0.99082   1.00
H2       1.12244    1.00564    0.95317   1.00
H2       1.16769    0.98063    0.95588   1.00
N1       1.17357    0.84164    0.97367   1.00
C6       1.19573    0.81035    0.96659   1.00
C6       1.13654    0.82963    0.97286   1.00
C6       1.17259    0.77805    0.96067   1.00
C6       1.13495    0.79031    0.96467   1.00
H3       1.22697    0.81088    0.96542   1.00
H3       1.11200    0.84835    0.97763   1.00
H3       1.18213    0.74882    0.95420   1.00
H3       1.10925    0.77256    0.96189   1.00
N1       1.15643    1.00799    0.90169   1.00
C6       1.19346    1.01562    0.89239   1.00
C6       1.13427    1.02425    0.87404   1.00
C6       1.19505    1.03657    0.85812   1.00
C6       1.15741    1.04205    0.84644   1.00
H3       1.21800    1.00628    0.90929   1.00
H3       1.10303    1.02303    0.87362   1.00
H3       1.22075    1.04669    0.84327   1.00
H3       1.14787    1.05734    0.82071   1.00
C4       0.91508    0.68585    0.91518   1.00
C4       0.91492    0.64415    0.91482   1.00
C3a      0.90519    0.70754    0.94936   1.00
C3       0.94637    0.62268    0.93046   1.00
C3       0.92521    0.70732    0.88155   1.00
C3a      0.88324    0.62246    0.89863   1.00
C2       0.91508    0.77012    0.91497   1.00
C2       0.91507    0.55988    0.91496   1.00
C3       0.90527    0.74905    0.94868   1.00
C3       0.94635    0.58137    0.93062   1.00
C3       0.92508    0.74863    0.88146   1.00
C3       0.88379    0.58095    0.89903   1.00
C5       0.89380    0.68728    0.98690   1.00
H1       0.97095    0.63809    0.94301   1.00
H1       0.89754    0.76521    0.97468   1.00
H1       0.97094    0.56599    0.94310   1.00
H1       0.93281    0.76401    0.85498   1.00
H1       0.85955    0.56479    0.88687   1.00
C5       0.84807    0.64272    0.88123   1.00
H1       0.93289    0.69191    0.85504   1.00
H2       0.82280    0.62244    0.88077   1.00
H2       0.83918    0.66769    0.89987   1.00
H2       0.87683    0.70756    1.00564   1.00
H2       0.87412    0.66231    0.98063   1.00
N1       0.85633    0.65643    0.84164   1.00
C6       0.86341    0.63427    0.81035   1.00
C6       0.85714    0.69346    0.82963   1.00
C6       0.86933    0.65741    0.77805   1.00
C6       0.86533    0.69505    0.79031   1.00
H3       0.86458    0.60303    0.81088   1.00
H3       0.85237    0.71800    0.84835   1.00
H3       0.87580    0.64787    0.74882   1.00
H3       0.86811    0.72075    0.77256   1.00
N1       0.92831    0.67357    1.00799   1.00
C6       0.93761    0.63654    1.01562   1.00
C6       0.95596    0.69573    1.02425   1.00
C6       0.97188    0.63495    1.03657   1.00
C6       0.98356    0.67259    1.04205   1.00
H3       0.92071    0.61200    1.00628   1.00
H3       0.95638    0.72697    1.02303   1.00
H3       0.98673    0.60925    1.04669   1.00
H3       1.00929    0.68213    1.05734   1.00
C4       0.91518    0.91508    0.68585   1.00
C4       0.91482    0.91492    0.64415   1.00
C3a      0.94936    0.90519    0.70754   1.00
C3       0.93046    0.94637    0.62268   1.00
C3       0.88155    0.92521    0.70732   1.00
C3a      0.89863    0.88324    0.62246   1.00
C2       0.91497    0.91508    0.77012   1.00
C2       0.91496    0.91507    0.55988   1.00
C3       0.94868    0.90527    0.74905   1.00
C3       0.93062    0.94635    0.58137   1.00
C3       0.88146    0.92508    0.74863   1.00
C3       0.89903    0.88379    0.58095   1.00
C5       0.98690    0.89380    0.68728   1.00
H1       0.94301    0.97095    0.63809   1.00
H1       0.97468    0.89754    0.76521   1.00
H1       0.94310    0.97094    0.56599   1.00
H1       0.85498    0.93281    0.76401   1.00
H1       0.88687    0.85955    0.56479   1.00
C5       0.88123    0.84807    0.64272   1.00
H1       0.85504    0.93289    0.69191   1.00
H2       0.88077    0.82280    0.62244   1.00
H2       0.89987    0.83918    0.66769   1.00
H2       1.00564    0.87683    0.70756   1.00
H2       0.98063    0.87412    0.66231   1.00
N1       0.84164    0.85633    0.65643   1.00
C6       0.81035    0.86341    0.63427   1.00
C6       0.82963    0.85714    0.69346   1.00
C6       0.77805    0.86933    0.65741   1.00
C6       0.79031    0.86533    0.69505   1.00
H3       0.81088    0.86458    0.60303   1.00
H3       0.84835    0.85237    0.71800   1.00
H3       0.74882    0.87580    0.64787   1.00
H3       0.77256    0.86811    0.72075   1.00
N1       1.00799    0.92831    0.67357   1.00
C6       1.01562    0.93761    0.63654   1.00
C6       1.02425    0.95596    0.69573   1.00
C6       1.03657    0.97188    0.63495   1.00
C6       1.04205    0.98356    0.67259   1.00
H3       1.00628    0.92071    0.61200   1.00
H3       1.02303    0.95638    0.72697   1.00
H3       1.04669    0.98673    0.60925   1.00
H3       1.05734    1.00929    0.68213   1.00
C4       0.41518    0.41492    1.14415   1.00
C4       0.41482    0.41508    1.18585   1.00
C3a      0.44936    0.42481    1.12246   1.00
C3       0.43046    0.38363    1.20732   1.00
C3       0.38155    0.40479    1.12268   1.00
C3a      0.39863    0.44676    1.20754   1.00
C2       0.41497    0.41492    1.05988   1.00
C2       0.41496    0.41493    1.27012   1.00
C3       0.44868    0.42473    1.08095   1.00
C3       0.43062    0.38365    1.24863   1.00
C3       0.38146    0.40492    1.08137   1.00
C3       0.39903    0.44621    1.24905   1.00
C5       0.48690    0.43620    1.14272   1.00
H1       0.44301    0.35905    1.19191   1.00
H1       0.47468    0.43246    1.06479   1.00
H1       0.44310    0.35906    1.26401   1.00
H1       0.35498    0.39719    1.06599   1.00
H1       0.38687    0.47045    1.26521   1.00
C5       0.38123    0.48193    1.18728   1.00
H1       0.35504    0.39711    1.13809   1.00
H2       0.38077    0.50720    1.20756   1.00
H2       0.39987    0.49082    1.16231   1.00
H2       0.50564    0.45317    1.12244   1.00
H2       0.48063    0.45588    1.16769   1.00
N1       0.34164    0.47367    1.17357   1.00
C6       0.31035    0.46659    1.19573   1.00
C6       0.32963    0.47286    1.13654   1.00
C6       0.27805    0.46067    1.17259   1.00
C6       0.29031    0.46467    1.13495   1.00
H3       0.31088    0.46542    1.22697   1.00
H3       0.34835    0.47763    1.11200   1.00
H3       0.24882    0.45420    1.18213   1.00
H3       0.27256    0.46189    1.10925   1.00
N1       0.50799    0.40169    1.15643   1.00
C6       0.51562    0.39239    1.19346   1.00
C6       0.52425    0.37404    1.13427   1.00
C6       0.53657    0.35812    1.19505   1.00
C6       0.54205    0.34644    1.15741   1.00
H3       0.50628    0.40929    1.21800   1.00
H3       0.52303    0.37362    1.10303   1.00
H3       0.54669    0.34327    1.22075   1.00
H3       0.55734    0.32071    1.14787   1.00
C4       0.41492    0.64415    0.91518   1.00
C4       0.41508    0.68585    0.91482   1.00
C3a      0.42481    0.62246    0.94936   1.00
C3       0.38363    0.70732    0.93046   1.00
C3       0.40479    0.62268    0.88155   1.00
C3a      0.44676    0.70754    0.89863   1.00
C2       0.41492    0.55988    0.91497   1.00
C2       0.41493    0.77012    0.91496   1.00
C3       0.42473    0.58095    0.94868   1.00
C3       0.38365    0.74863    0.93062   1.00
C3       0.40492    0.58137    0.88146   1.00
C3       0.44621    0.74905    0.89903   1.00
C5       0.43620    0.64272    0.98690   1.00
H1       0.35905    0.69191    0.94301   1.00
H1       0.43246    0.56479    0.97468   1.00
H1       0.35906    0.76401    0.94310   1.00
H1       0.39719    0.56599    0.85498   1.00
H1       0.47045    0.76521    0.88687   1.00
C5       0.48193    0.68728    0.88123   1.00
H1       0.39711    0.63809    0.85504   1.00
H2       0.50720    0.70756    0.88077   1.00
H2       0.49082    0.66231    0.89987   1.00
H2       0.45317    0.62244    1.00564   1.00
H2       0.45588    0.66769    0.98063   1.00
N1       0.47367    0.67357    0.84164   1.00
C6       0.46659    0.69573    0.81035   1.00
C6       0.47286    0.63654    0.82963   1.00
C6       0.46067    0.67259    0.77805   1.00
C6       0.46467    0.63495    0.79031   1.00
H3       0.46542    0.72697    0.81088   1.00
H3       0.47763    0.61200    0.84835   1.00
H3       0.45420    0.68213    0.74882   1.00
H3       0.46189    0.60925    0.77256   1.00
N1       0.40169    0.65643    1.00799   1.00
C6       0.39239    0.69346    1.01562   1.00
C6       0.37404    0.63427    1.02425   1.00
C6       0.35812    0.69505    1.03657   1.00
C6       0.34644    0.65741    1.04205   1.00
H3       0.40929    0.71800    1.00628   1.00
H3       0.37362    0.60303    1.02303   1.00
H3       0.34327    0.72075    1.04669   1.00
H3       0.32071    0.64787    1.05734   1.00
C4       0.18585    0.41518    0.91508   1.00
C4       0.14415    0.41482    0.91492   1.00
C3a      0.20754    0.44936    0.90519   1.00
C3       0.12268    0.43046    0.94637   1.00
C3       0.20732    0.38155    0.92521   1.00
C3a      0.12246    0.39863    0.88324   1.00
C2       0.27012    0.41497    0.91508   1.00
C2       0.05988    0.41496    0.91507   1.00
C3       0.24905    0.44868    0.90527   1.00
C3       0.08137    0.43062    0.94635   1.00
C3       0.24863    0.38146    0.92508   1.00
C3       0.08095    0.39903    0.88379   1.00
C5       0.18728    0.48690    0.89380   1.00
H1       0.13809    0.44301    0.97095   1.00
H1       0.26521    0.47468    0.89754   1.00
H1       0.06599    0.44310    0.97094   1.00
H1       0.26401    0.35498    0.93281   1.00
H1       0.06479    0.38687    0.85955   1.00
C5       0.14272    0.38123    0.84807   1.00
H1       0.19191    0.35504    0.93289   1.00
H2       0.12244    0.38077    0.82280   1.00
H2       0.16769    0.39987    0.83918   1.00
H2       0.20756    0.50564    0.87683   1.00
H2       0.16231    0.48063    0.87412   1.00
N1       0.15643    0.34164    0.85633   1.00
C6       0.13427    0.31035    0.86341   1.00
C6       0.19346    0.32963    0.85714   1.00
C6       0.15741    0.27805    0.86933   1.00
C6       0.19505    0.29031    0.86533   1.00
H3       0.10303    0.31088    0.86458   1.00
H3       0.21800    0.34835    0.85237   1.00
H3       0.14787    0.24882    0.87580   1.00
H3       0.22075    0.27256    0.86811   1.00
N1       0.17357    0.50799    0.92831   1.00
C6       0.13654    0.51562    0.93761   1.00
C6       0.19573    0.52425    0.95596   1.00
C6       0.13495    0.53657    0.97188   1.00
C6       0.17259    0.54205    0.98356   1.00
H3       0.11200    0.50628    0.92071   1.00
H3       0.22697    0.52303    0.95638   1.00
H3       0.10925    0.54669    0.98673   1.00
H3       0.18213    0.55734    1.00929   1.00
C4       0.64415    0.41518    0.91492   1.00
C4       0.68585    0.41482    0.91508   1.00
C3a      0.62246    0.44936    0.92481   1.00
C3       0.70732    0.43046    0.88363   1.00
C3       0.62268    0.38155    0.90479   1.00
C3a      0.70754    0.39863    0.94676   1.00
C2       0.55988    0.41497    0.91492   1.00
C2       0.77012    0.41496    0.91493   1.00
C3       0.58095    0.44868    0.92473   1.00
C3       0.74863    0.43062    0.88365   1.00
C3       0.58137    0.38146    0.90492   1.00
C3       0.74905    0.39903    0.94621   1.00
C5       0.64272    0.48690    0.93620   1.00
H1       0.69191    0.44301    0.85905   1.00
H1       0.56479    0.47468    0.93246   1.00
H1       0.76401    0.44310    0.85906   1.00
H1       0.56599    0.35498    0.89719   1.00
H1       0.76521    0.38687    0.97045   1.00
C5       0.68728    0.38123    0.98193   1.00
H1       0.63809    0.35504    0.89711   1.00
H2       0.70756    0.38077    1.00720   1.00
H2       0.66231    0.39987    0.99082   1.00
H2       0.62244    0.50564    0.95317   1.00
H2       0.66769    0.48063    0.95588   1.00
N1       0.67357    0.34164    0.97367   1.00
C6       0.69573    0.31035    0.96659   1.00
C6       0.63654    0.32963    0.97286   1.00
C6       0.67259    0.27805    0.96067   1.00
C6       0.63495    0.29031    0.96467   1.00
H3       0.72697    0.31088    0.96542   1.00
H3       0.61200    0.34835    0.97763   1.00
H3       0.68213    0.24882    0.95420   1.00
H3       0.60925    0.27256    0.96189   1.00
N1       0.65643    0.50799    0.90169   1.00
C6       0.69346    0.51562    0.89239   1.00
C6       0.63427    0.52425    0.87404   1.00
C6       0.69505    0.53657    0.85812   1.00
C6       0.65741    0.54205    0.84644   1.00
H3       0.71800    0.50628    0.90929   1.00
H3       0.60303    0.52303    0.87362   1.00
H3       0.72075    0.54669    0.84327   1.00
H3       0.64787    0.55734    0.82071   1.00
C4       0.41508    0.18585    0.91518   1.00
C4       0.41492    0.14415    0.91482   1.00
C3a      0.40519    0.20754    0.94936   1.00
C3       0.44637    0.12268    0.93046   1.00
C3       0.42521    0.20732    0.88155   1.00
C3a      0.38324    0.12246    0.89863   1.00
C2       0.41508    0.27012    0.91497   1.00
C2       0.41507    0.05988    0.91496   1.00
C3       0.40527    0.24905    0.94868   1.00
C3       0.44635    0.08137    0.93062   1.00
C3       0.42508    0.24863    0.88146   1.00
C3       0.38379    0.08095    0.89903   1.00
C5       0.39380    0.18728    0.98690   1.00
H1       0.47095    0.13809    0.94301   1.00
H1       0.39754    0.26521    0.97468   1.00
H1       0.47094    0.06599    0.94310   1.00
H1       0.43281    0.26401    0.85498   1.00
H1       0.35955    0.06479    0.88687   1.00
C5       0.34807    0.14272    0.88123   1.00
H1       0.43289    0.19191    0.85504   1.00
H2       0.32280    0.12244    0.88077   1.00
H2       0.33918    0.16769    0.89987   1.00
H2       0.37683    0.20756    1.00564   1.00
H2       0.37412    0.16231    0.98063   1.00
N1       0.35633    0.15643    0.84164   1.00
C6       0.36341    0.13427    0.81035   1.00
C6       0.35714    0.19346    0.82963   1.00
C6       0.36933    0.15741    0.77805   1.00
C6       0.36533    0.19505    0.79031   1.00
H3       0.36458    0.10303    0.81088   1.00
H3       0.35237    0.21800    0.84835   1.00
H3       0.37580    0.14787    0.74882   1.00
H3       0.36811    0.22075    0.77256   1.00
N1       0.42831    0.17357    1.00799   1.00
C6       0.43761    0.13654    1.01562   1.00
C6       0.45596    0.19573    1.02425   1.00
C6       0.47188    0.13495    1.03657   1.00
C6       0.48356    0.17259    1.04205   1.00
H3       0.42071    0.11200    1.00628   1.00
H3       0.45638    0.22697    1.02303   1.00
H3       0.48673    0.10925    1.04669   1.00
H3       0.50929    0.18213    1.05734   1.00
C4       0.41518    0.41508    0.68585   1.00
C4       0.41482    0.41492    0.64415   1.00
C3a      0.44936    0.40519    0.70754   1.00
C3       0.43046    0.44637    0.62268   1.00
C3       0.38155    0.42521    0.70732   1.00
C3a      0.39863    0.38324    0.62246   1.00
C2       0.41497    0.41508    0.77012   1.00
C2       0.41496    0.41507    0.55988   1.00
C3       0.44868    0.40527    0.74905   1.00
C3       0.43062    0.44635    0.58137   1.00
C3       0.38146    0.42508    0.74863   1.00
C3       0.39903    0.38379    0.58095   1.00
C5       0.48690    0.39380    0.68728   1.00
H1       0.44301    0.47095    0.63809   1.00
H1       0.47468    0.39754    0.76521   1.00
H1       0.44310    0.47094    0.56599   1.00
H1       0.35498    0.43281    0.76401   1.00
H1       0.38687    0.35955    0.56479   1.00
C5       0.38123    0.34807    0.64272   1.00
H1       0.35504    0.43289    0.69191   1.00
H2       0.38077    0.32280    0.62244   1.00
H2       0.39987    0.33918    0.66769   1.00
H2       0.50564    0.37683    0.70756   1.00
H2       0.48063    0.37412    0.66231   1.00
N1       0.34164    0.35633    0.65643   1.00
C6       0.31035    0.36341    0.63427   1.00
C6       0.32963    0.35714    0.69346   1.00
C6       0.27805    0.36933    0.65741   1.00
C6       0.29031    0.36533    0.69505   1.00
H3       0.31088    0.36458    0.60303   1.00
H3       0.34835    0.35237    0.71800   1.00
H3       0.24882    0.37580    0.64787   1.00
H3       0.27256    0.36811    0.72075   1.00
N1       0.50799    0.42831    0.67357   1.00
C6       0.51562    0.43761    0.63654   1.00
C6       0.52425    0.45596    0.69573   1.00
C6       0.53657    0.47188    0.63495   1.00
C6       0.54205    0.48356    0.67259   1.00
H3       0.50628    0.42071    0.61200   1.00
H3       0.52303    0.45638    0.72697   1.00
H3       0.54669    0.48673    0.60925   1.00
H3       0.55734    0.50929    0.68213   1.00
C4       0.41518    0.91492    0.64415   1.00
C4       0.41482    0.91508    0.68585   1.00
C3a      0.44936    0.92481    0.62246   1.00
C3       0.43046    0.88363    0.70732   1.00
C3       0.38155    0.90479    0.62268   1.00
C3a      0.39863    0.94676    0.70754   1.00
C2       0.41497    0.91492    0.55988   1.00
C2       0.41496    0.91493    0.77012   1.00
C3       0.44868    0.92473    0.58095   1.00
C3       0.43062    0.88365    0.74863   1.00
C3       0.38146    0.90492    0.58137   1.00
C3       0.39903    0.94621    0.74905   1.00
C5       0.48690    0.93620    0.64272   1.00
H1       0.44301    0.85905    0.69191   1.00
H1       0.47468    0.93246    0.56479   1.00
H1       0.44310    0.85906    0.76401   1.00
H1       0.35498    0.89719    0.56599   1.00
H1       0.38687    0.97045    0.76521   1.00
C5       0.38123    0.98193    0.68728   1.00
H1       0.35504    0.89711    0.63809   1.00
H2       0.38077    1.00720    0.70756   1.00
H2       0.39987    0.99082    0.66231   1.00
H2       0.50564    0.95317    0.62244   1.00
H2       0.48063    0.95588    0.66769   1.00
N1       0.34164    0.97367    0.67357   1.00
C6       0.31035    0.96659    0.69573   1.00
C6       0.32963    0.97286    0.63654   1.00
C6       0.27805    0.96067    0.67259   1.00
C6       0.29031    0.96467    0.63495   1.00
H3       0.31088    0.96542    0.72697   1.00
H3       0.34835    0.97763    0.61200   1.00
H3       0.24882    0.95420    0.68213   1.00
H3       0.27256    0.96189    0.60925   1.00
N1       0.50799    0.90169    0.65643   1.00
C6       0.51562    0.89239    0.69346   1.00
C6       0.52425    0.87404    0.63427   1.00
C6       0.53657    0.85812    0.69505   1.00
C6       0.54205    0.84644    0.65741   1.00
H3       0.50628    0.90929    0.71800   1.00
H3       0.52303    0.87362    0.60303   1.00
H3       0.54669    0.84327    0.72075   1.00
H3       0.55734    0.82071    0.64787   1.00
C4       0.41492    1.14415    0.41518   1.00
C4       0.41508    1.18585    0.41482   1.00
C3a      0.42481    1.12246    0.44936   1.00
C3       0.38363    1.20732    0.43046   1.00
C3       0.40479    1.12268    0.38155   1.00
C3a      0.44676    1.20754    0.39863   1.00
C2       0.41492    1.05988    0.41497   1.00
C2       0.41493    1.27012    0.41496   1.00
C3       0.42473    1.08095    0.44868   1.00
C3       0.38365    1.24863    0.43062   1.00
C3       0.40492    1.08137    0.38146   1.00
C3       0.44621    1.24905    0.39903   1.00
C5       0.43620    1.14272    0.48690   1.00
H1       0.35905    1.19191    0.44301   1.00
H1       0.43246    1.06479    0.47468   1.00
H1       0.35906    1.26401    0.44310   1.00
H1       0.39719    1.06599    0.35498   1.00
H1       0.47045    1.26521    0.38687   1.00
C5       0.48193    1.18728    0.38123   1.00
H1       0.39711    1.13809    0.35504   1.00
H2       0.50720    1.20756    0.38077   1.00
H2       0.49082    1.16231    0.39987   1.00
H2       0.45317    1.12244    0.50564   1.00
H2       0.45588    1.16769    0.48063   1.00
N1       0.47367    1.17357    0.34164   1.00
C6       0.46659    1.19573    0.31035   1.00
C6       0.47286    1.13654    0.32963   1.00
C6       0.46067    1.17259    0.27805   1.00
C6       0.46467    1.13495    0.29031   1.00
H3       0.46542    1.22697    0.31088   1.00
H3       0.47763    1.11200    0.34835   1.00
H3       0.45420    1.18213    0.24882   1.00
H3       0.46189    1.10925    0.27256   1.00
N1       0.40169    1.15643    0.50799   1.00
C6       0.39239    1.19346    0.51562   1.00
C6       0.37404    1.13427    0.52425   1.00
C6       0.35812    1.19505    0.53657   1.00
C6       0.34644    1.15741    0.54205   1.00
H3       0.40929    1.21800    0.50628   1.00
H3       0.37362    1.10303    0.52303   1.00
H3       0.34327    1.22075    0.54669   1.00
H3       0.32071    1.14787    0.55734   1.00
C4       0.18585    0.91518    0.41508   1.00
C4       0.14415    0.91482    0.41492   1.00
C3a      0.20754    0.94936    0.40519   1.00
C3       0.12268    0.93046    0.44637   1.00
C3       0.20732    0.88155    0.42521   1.00
C3a      0.12246    0.89863    0.38324   1.00
C2       0.27012    0.91497    0.41508   1.00
C2       0.05988    0.91496    0.41507   1.00
C3       0.24905    0.94868    0.40527   1.00
C3       0.08137    0.93062    0.44635   1.00
C3       0.24863    0.88146    0.42508   1.00
C3       0.08095    0.89903    0.38379   1.00
C5       0.18728    0.98690    0.39380   1.00
H1       0.13809    0.94301    0.47095   1.00
H1       0.26521    0.97468    0.39754   1.00
H1       0.06599    0.94310    0.47094   1.00
H1       0.26401    0.85498    0.43281   1.00
H1       0.06479    0.88687    0.35955   1.00
C5       0.14272    0.88123    0.34807   1.00
H1       0.19191    0.85504    0.43289   1.00
H2       0.12244    0.88077    0.32280   1.00
H2       0.16769    0.89987    0.33918   1.00
H2       0.20756    1.00564    0.37683   1.00
H2       0.16231    0.98063    0.37412   1.00
N1       0.15643    0.84164    0.35633   1.00
C6       0.13427    0.81035    0.36341   1.00
C6       0.19346    0.82963    0.35714   1.00
C6       0.15741    0.77805    0.36933   1.00
C6       0.19505    0.79031    0.36533   1.00
H3       0.10303    0.81088    0.36458   1.00
H3       0.21800    0.84835    0.35237   1.00
H3       0.14787    0.74882    0.37580   1.00
H3       0.22075    0.77256    0.36811   1.00
N1       0.17357    1.00799    0.42831   1.00
C6       0.13654    1.01562    0.43761   1.00
C6       0.19573    1.02425    0.45596   1.00
C6       0.13495    1.03657    0.47188   1.00
C6       0.17259    1.04205    0.48356   1.00
H3       0.11200    1.00628    0.42071   1.00
H3       0.22697    1.02303    0.45638   1.00
H3       0.10925    1.04669    0.48673   1.00
H3       0.18213    1.05734    0.50929   1.00
C4       0.64415    0.91518    0.41492   1.00
C4       0.68585    0.91482    0.41508   1.00
C3a      0.62246    0.94936    0.42481   1.00
C3       0.70732    0.93046    0.38363   1.00
C3       0.62268    0.88155    0.40479   1.00
C3a      0.70754    0.89863    0.44676   1.00
C2       0.55988    0.91497    0.41492   1.00
C2       0.77012    0.91496    0.41493   1.00
C3       0.58095    0.94868    0.42473   1.00
C3       0.74863    0.93062    0.38365   1.00
C3       0.58137    0.88146    0.40492   1.00
C3       0.74905    0.89903    0.44621   1.00
C5       0.64272    0.98690    0.43620   1.00
H1       0.69191    0.94301    0.35905   1.00
H1       0.56479    0.97468    0.43246   1.00
H1       0.76401    0.94310    0.35906   1.00
H1       0.56599    0.85498    0.39719   1.00
H1       0.76521    0.88687    0.47045   1.00
C5       0.68728    0.88123    0.48193   1.00
H1       0.63809    0.85504    0.39711   1.00
H2       0.70756    0.88077    0.50720   1.00
H2       0.66231    0.89987    0.49082   1.00
H2       0.62244    1.00564    0.45317   1.00
H2       0.66769    0.98063    0.45588   1.00
N1       0.67357    0.84164    0.47367   1.00
C6       0.69573    0.81035    0.46659   1.00
C6       0.63654    0.82963    0.47286   1.00
C6       0.67259    0.77805    0.46067   1.00
C6       0.63495    0.79031    0.46467   1.00
H3       0.72697    0.81088    0.46542   1.00
H3       0.61200    0.84835    0.47763   1.00
H3       0.68213    0.74882    0.45420   1.00
H3       0.60925    0.77256    0.46189   1.00
N1       0.65643    1.00799    0.40169   1.00
C6       0.69346    1.01562    0.39239   1.00
C6       0.63427    1.02425    0.37404   1.00
C6       0.69505    1.03657    0.35812   1.00
C6       0.65741    1.04205    0.34644   1.00
H3       0.71800    1.00628    0.40929   1.00
H3       0.60303    1.02303    0.37362   1.00
H3       0.72075    1.04669    0.34327   1.00
H3       0.64787    1.05734    0.32071   1.00
C4       0.41508    0.68585    0.41518   1.00
C4       0.41492    0.64415    0.41482   1.00
C3a      0.40519    0.70754    0.44936   1.00
C3       0.44637    0.62268    0.43046   1.00
C3       0.42521    0.70732    0.38155   1.00
C3a      0.38324    0.62246    0.39863   1.00
C2       0.41508    0.77012    0.41497   1.00
C2       0.41507    0.55988    0.41496   1.00
C3       0.40527    0.74905    0.44868   1.00
C3       0.44635    0.58137    0.43062   1.00
C3       0.42508    0.74863    0.38146   1.00
C3       0.38379    0.58095    0.39903   1.00
C5       0.39380    0.68728    0.48690   1.00
H1       0.47095    0.63809    0.44301   1.00
H1       0.39754    0.76521    0.47468   1.00
H1       0.47094    0.56599    0.44310   1.00
H1       0.43281    0.76401    0.35498   1.00
H1       0.35955    0.56479    0.38687   1.00
C5       0.34807    0.64272    0.38123   1.00
H1       0.43289    0.69191    0.35504   1.00
H2       0.32280    0.62244    0.38077   1.00
H2       0.33918    0.66769    0.39987   1.00
H2       0.37683    0.70756    0.50564   1.00
H2       0.37412    0.66231    0.48063   1.00
N1       0.35633    0.65643    0.34164   1.00
C6       0.36341    0.63427    0.31035   1.00
C6       0.35714    0.69346    0.32963   1.00
C6       0.36933    0.65741    0.27805   1.00
C6       0.36533    0.69505    0.29031   1.00
H3       0.36458    0.60303    0.31088   1.00
H3       0.35237    0.71800    0.34835   1.00
H3       0.37580    0.64787    0.24882   1.00
H3       0.36811    0.72075    0.27256   1.00
N1       0.42831    0.67357    0.50799   1.00
C6       0.43761    0.63654    0.51562   1.00
C6       0.45596    0.69573    0.52425   1.00
C6       0.47188    0.63495    0.53657   1.00
C6       0.48356    0.67259    0.54205   1.00
H3       0.42071    0.61200    0.50628   1.00
H3       0.45638    0.72697    0.52303   1.00
H3       0.48673    0.60925    0.54669   1.00
H3       0.50929    0.68213    0.55734   1.00
C4       0.41518    0.91508    0.18585   1.00
C4       0.41482    0.91492    0.14415   1.00
C3a      0.44936    0.90519    0.20754   1.00
C3       0.43046    0.94637    0.12268   1.00
C3       0.38155    0.92521    0.20732   1.00
C3a      0.39863    0.88324    0.12246   1.00
C2       0.41497    0.91508    0.27012   1.00
C2       0.41496    0.91507    0.05988   1.00
C3       0.44868    0.90527    0.24905   1.00
C3       0.43062    0.94635    0.08137   1.00
C3       0.38146    0.92508    0.24863   1.00
C3       0.39903    0.88379    0.08095   1.00
C5       0.48690    0.89380    0.18728   1.00
H1       0.44301    0.97095    0.13809   1.00
H1       0.47468    0.89754    0.26521   1.00
H1       0.44310    0.97094    0.06599   1.00
H1       0.35498    0.93281    0.26401   1.00
H1       0.38687    0.85955    0.06479   1.00
C5       0.38123    0.84807    0.14272   1.00
H1       0.35504    0.93289    0.19191   1.00
H2       0.38077    0.82280    0.12244   1.00
H2       0.39987    0.83918    0.16769   1.00
H2       0.50564    0.87683    0.20756   1.00
H2       0.48063    0.87412    0.16231   1.00
N1       0.34164    0.85633    0.15643   1.00
C6       0.31035    0.86341    0.13427   1.00
C6       0.32963    0.85714    0.19346   1.00
C6       0.27805    0.86933    0.15741   1.00
C6       0.29031    0.86533    0.19505   1.00
H3       0.31088    0.86458    0.10303   1.00
H3       0.34835    0.85237    0.21800   1.00
H3       0.24882    0.87580    0.14787   1.00
H3       0.27256    0.86811    0.22075   1.00
N1       0.50799    0.92831    0.17357   1.00
C6       0.51562    0.93761    0.13654   1.00
C6       0.52425    0.95596    0.19573   1.00
C6       0.53657    0.97188    0.13495   1.00
C6       0.54205    0.98356    0.17259   1.00
H3       0.50628    0.92071    0.11200   1.00
H3       0.52303    0.95638    0.22697   1.00
H3       0.54669    0.98673    0.10925   1.00
H3       0.55734    1.00929    0.18213   1.00
C4       0.91518    0.41492    0.64415   1.00
C4       0.91482    0.41508    0.68585   1.00
C3a      0.94936    0.42481    0.62246   1.00
C3       0.93046    0.38363    0.70732   1.00
C3       0.88155    0.40479    0.62268   1.00
C3a      0.89863    0.44676    0.70754   1.00
C2       0.91497    0.41492    0.55988   1.00
C2       0.91496    0.41493    0.77012   1.00
C3       0.94868    0.42473    0.58095   1.00
C3       0.93062    0.38365    0.74863   1.00
C3       0.88146    0.40492    0.58137   1.00
C3       0.89903    0.44621    0.74905   1.00
C5       0.98690    0.43620    0.64272   1.00
H1       0.94301    0.35905    0.69191   1.00
H1       0.97468    0.43246    0.56479   1.00
H1       0.94310    0.35906    0.76401   1.00
H1       0.85498    0.39719    0.56599   1.00
H1       0.88687    0.47045    0.76521   1.00
C5       0.88123    0.48193    0.68728   1.00
H1       0.85504    0.39711    0.63809   1.00
H2       0.88077    0.50720    0.70756   1.00
H2       0.89987    0.49082    0.66231   1.00
H2       1.00564    0.45317    0.62244   1.00
H2       0.98063    0.45588    0.66769   1.00
N1       0.84164    0.47367    0.67357   1.00
C6       0.81035    0.46659    0.69573   1.00
C6       0.82963    0.47286    0.63654   1.00
C6       0.77805    0.46067    0.67259   1.00
C6       0.79031    0.46467    0.63495   1.00
H3       0.81088    0.46542    0.72697   1.00
H3       0.84835    0.47763    0.61200   1.00
H3       0.74882    0.45420    0.68213   1.00
H3       0.77256    0.46189    0.60925   1.00
N1       1.00799    0.40169    0.65643   1.00
C6       1.01562    0.39239    0.69346   1.00
C6       1.02425    0.37404    0.63427   1.00
C6       1.03657    0.35812    0.69505   1.00
C6       1.04205    0.34644    0.65741   1.00
H3       1.00628    0.40929    0.71800   1.00
H3       1.02303    0.37362    0.60303   1.00
H3       1.04669    0.34327    0.72075   1.00
H3       1.05734    0.32071    0.64787   1.00
C4       0.91492    0.64415    0.41518   1.00
C4       0.91508    0.68585    0.41482   1.00
C3a      0.92481    0.62246    0.44936   1.00
C3       0.88363    0.70732    0.43046   1.00
C3       0.90479    0.62268    0.38155   1.00
C3a      0.94676    0.70754    0.39863   1.00
C2       0.91492    0.55988    0.41497   1.00
C2       0.91493    0.77012    0.41496   1.00
C3       0.92473    0.58095    0.44868   1.00
C3       0.88365    0.74863    0.43062   1.00
C3       0.90492    0.58137    0.38146   1.00
C3       0.94621    0.74905    0.39903   1.00
C5       0.93620    0.64272    0.48690   1.00
H1       0.85905    0.69191    0.44301   1.00
H1       0.93246    0.56479    0.47468   1.00
H1       0.85906    0.76401    0.44310   1.00
H1       0.89719    0.56599    0.35498   1.00
H1       0.97045    0.76521    0.38687   1.00
C5       0.98193    0.68728    0.38123   1.00
H1       0.89711    0.63809    0.35504   1.00
H2       1.00720    0.70756    0.38077   1.00
H2       0.99082    0.66231    0.39987   1.00
H2       0.95317    0.62244    0.50564   1.00
H2       0.95588    0.66769    0.48063   1.00
N1       0.97367    0.67357    0.34164   1.00
C6       0.96659    0.69573    0.31035   1.00
C6       0.97286    0.63654    0.32963   1.00
C6       0.96067    0.67259    0.27805   1.00
C6       0.96467    0.63495    0.29031   1.00
H3       0.96542    0.72697    0.31088   1.00
H3       0.97763    0.61200    0.34835   1.00
H3       0.95420    0.68213    0.24882   1.00
H3       0.96189    0.60925    0.27256   1.00
N1       0.90169    0.65643    0.50799   1.00
C6       0.89239    0.69346    0.51562   1.00
C6       0.87404    0.63427    0.52425   1.00
C6       0.85812    0.69505    0.53657   1.00
C6       0.84644    0.65741    0.54205   1.00
H3       0.90929    0.71800    0.50628   1.00
H3       0.87362    0.60303    0.52303   1.00
H3       0.84327    0.72075    0.54669   1.00
H3       0.82071    0.64787    0.55734   1.00
C4       0.68585    0.41518    0.41508   1.00
C4       0.64415    0.41482    0.41492   1.00
C3a      0.70754    0.44936    0.40519   1.00
C3       0.62268    0.43046    0.44637   1.00
C3       0.70732    0.38155    0.42521   1.00
C3a      0.62246    0.39863    0.38324   1.00
C2       0.77012    0.41497    0.41508   1.00
C2       0.55988    0.41496    0.41507   1.00
C3       0.74905    0.44868    0.40527   1.00
C3       0.58137    0.43062    0.44635   1.00
C3       0.74863    0.38146    0.42508   1.00
C3       0.58095    0.39903    0.38379   1.00
C5       0.68728    0.48690    0.39380   1.00
H1       0.63809    0.44301    0.47095   1.00
H1       0.76521    0.47468    0.39754   1.00
H1       0.56599    0.44310    0.47094   1.00
H1       0.76401    0.35498    0.43281   1.00
H1       0.56479    0.38687    0.35955   1.00
C5       0.64272    0.38123    0.34807   1.00
H1       0.69191    0.35504    0.43289   1.00
H2       0.62244    0.38077    0.32280   1.00
H2       0.66769    0.39987    0.33918   1.00
H2       0.70756    0.50564    0.37683   1.00
H2       0.66231    0.48063    0.37412   1.00
N1       0.65643    0.34164    0.35633   1.00
C6       0.63427    0.31035    0.36341   1.00
C6       0.69346    0.32963    0.35714   1.00
C6       0.65741    0.27805    0.36933   1.00
C6       0.69505    0.29031    0.36533   1.00
H3       0.60303    0.31088    0.36458   1.00
H3       0.71800    0.34835    0.35237   1.00
H3       0.64787    0.24882    0.37580   1.00
H3       0.72075    0.27256    0.36811   1.00
N1       0.67357    0.50799    0.42831   1.00
C6       0.63654    0.51562    0.43761   1.00
C6       0.69573    0.52425    0.45596   1.00
C6       0.63495    0.53657    0.47188   1.00
C6       0.67259    0.54205    0.48356   1.00
H3       0.61200    0.50628    0.42071   1.00
H3       0.72697    0.52303    0.45638   1.00
H3       0.60925    0.54669    0.48673   1.00
H3       0.68213    0.55734    0.50929   1.00
C4       1.14415    0.41518    0.41492   1.00
C4       1.18585    0.41482    0.41508   1.00
C3a      1.12246    0.44936    0.42481   1.00
C3       1.20732    0.43046    0.38363   1.00
C3       1.12268    0.38155    0.40479   1.00
C3a      1.20754    0.39863    0.44676   1.00
C2       1.05988    0.41497    0.41492   1.00
C2       1.27012    0.41496    0.41493   1.00
C3       1.08095    0.44868    0.42473   1.00
C3       1.24863    0.43062    0.38365   1.00
C3       1.08137    0.38146    0.40492   1.00
C3       1.24905    0.39903    0.44621   1.00
C5       1.14272    0.48690    0.43620   1.00
H1       1.19191    0.44301    0.35905   1.00
H1       1.06479    0.47468    0.43246   1.00
H1       1.26401    0.44310    0.35906   1.00
H1       1.06599    0.35498    0.39719   1.00
H1       1.26521    0.38687    0.47045   1.00
C5       1.18728    0.38123    0.48193   1.00
H1       1.13809    0.35504    0.39711   1.00
H2       1.20756    0.38077    0.50720   1.00
H2       1.16231    0.39987    0.49082   1.00
H2       1.12244    0.50564    0.45317   1.00
H2       1.16769    0.48063    0.45588   1.00
N1       1.17357    0.34164    0.47367   1.00
C6       1.19573    0.31035    0.46659   1.00
C6       1.13654    0.32963    0.47286   1.00
C6       1.17259    0.27805    0.46067   1.00
C6       1.13495    0.29031    0.46467   1.00
H3       1.22697    0.31088    0.46542   1.00
H3       1.11200    0.34835    0.47763   1.00
H3       1.18213    0.24882    0.45420   1.00
H3       1.10925    0.27256    0.46189   1.00
N1       1.15643    0.50799    0.40169   1.00
C6       1.19346    0.51562    0.39239   1.00
C6       1.13427    0.52425    0.37404   1.00
C6       1.19505    0.53657    0.35812   1.00
C6       1.15741    0.54205    0.34644   1.00
H3       1.21800    0.50628    0.40929   1.00
H3       1.10303    0.52303    0.37362   1.00
H3       1.22075    0.54669    0.34327   1.00
H3       1.14787    0.55734    0.32071   1.00
C4       0.91508    0.18585    0.41518   1.00
C4       0.91492    0.14415    0.41482   1.00
C3a      0.90519    0.20754    0.44936   1.00
C3       0.94637    0.12268    0.43046   1.00
C3       0.92521    0.20732    0.38155   1.00
C3a      0.88324    0.12246    0.39863   1.00
C2       0.91508    0.27012    0.41497   1.00
C2       0.91507    0.05988    0.41496   1.00
C3       0.90527    0.24905    0.44868   1.00
C3       0.94635    0.08137    0.43062   1.00
C3       0.92508    0.24863    0.38146   1.00
C3       0.88379    0.08095    0.39903   1.00
C5       0.89380    0.18728    0.48690   1.00
H1       0.97095    0.13809    0.44301   1.00
H1       0.89754    0.26521    0.47468   1.00
H1       0.97094    0.06599    0.44310   1.00
H1       0.93281    0.26401    0.35498   1.00
H1       0.85955    0.06479    0.38687   1.00
C5       0.84807    0.14272    0.38123   1.00
H1       0.93289    0.19191    0.35504   1.00
H2       0.82280    0.12244    0.38077   1.00
H2       0.83918    0.16769    0.39987   1.00
H2       0.87683    0.20756    0.50564   1.00
H2       0.87412    0.16231    0.48063   1.00
N1       0.85633    0.15643    0.34164   1.00
C6       0.86341    0.13427    0.31035   1.00
C6       0.85714    0.19346    0.32963   1.00
C6       0.86933    0.15741    0.27805   1.00
C6       0.86533    0.19505    0.29031   1.00
H3       0.86458    0.10303    0.31088   1.00
H3       0.85237    0.21800    0.34835   1.00
H3       0.87580    0.14787    0.24882   1.00
H3       0.86811    0.22075    0.27256   1.00
N1       0.92831    0.17357    0.50799   1.00
C6       0.93761    0.13654    0.51562   1.00
C6       0.95596    0.19573    0.52425   1.00
C6       0.97188    0.13495    0.53657   1.00
C6       0.98356    0.17259    0.54205   1.00
H3       0.92071    0.11200    0.50628   1.00
H3       0.95638    0.22697    0.52303   1.00
H3       0.98673    0.10925    0.54669   1.00
H3       1.00929    0.18213    0.55734   1.00
C4       0.91518    0.41508    0.18585   1.00
C4       0.91482    0.41492    0.14415   1.00
C3a      0.94936    0.40519    0.20754   1.00
C3       0.93046    0.44637    0.12268   1.00
C3       0.88155    0.42521    0.20732   1.00
C3a      0.89863    0.38324    0.12246   1.00
C2       0.91497    0.41508    0.27012   1.00
C2       0.91496    0.41507    0.05988   1.00
C3       0.94868    0.40527    0.24905   1.00
C3       0.93062    0.44635    0.08137   1.00
C3       0.88146    0.42508    0.24863   1.00
C3       0.89903    0.38379    0.08095   1.00
C5       0.98690    0.39380    0.18728   1.00
H1       0.94301    0.47095    0.13809   1.00
H1       0.97468    0.39754    0.26521   1.00
H1       0.94310    0.47094    0.06599   1.00
H1       0.85498    0.43281    0.26401   1.00
H1       0.88687    0.35955    0.06479   1.00
C5       0.88123    0.34807    0.14272   1.00
H1       0.85504    0.43289    0.19191   1.00
H2       0.88077    0.32280    0.12244   1.00
H2       0.89987    0.33918    0.16769   1.00
H2       1.00564    0.37683    0.20756   1.00
H2       0.98063    0.37412    0.16231   1.00
N1       0.84164    0.35633    0.15643   1.00
C6       0.81035    0.36341    0.13427   1.00
C6       0.82963    0.35714    0.19346   1.00
C6       0.77805    0.36933    0.15741   1.00
C6       0.79031    0.36533    0.19505   1.00
H3       0.81088    0.36458    0.10303   1.00
H3       0.84835    0.35237    0.21800   1.00
H3       0.74882    0.37580    0.14787   1.00
H3       0.77256    0.36811    0.22075   1.00
N1       1.00799    0.42831    0.17357   1.00
C6       1.01562    0.43761    0.13654   1.00
C6       1.02425    0.45596    0.19573   1.00
C6       1.03657    0.47188    0.13495   1.00
C6       1.04205    0.48356    0.17259   1.00
H3       1.00628    0.42071    0.11200   1.00
H3       1.02303    0.45638    0.22697   1.00
H3       1.04669    0.48673    0.10925   1.00
H3       1.05734    0.50929    0.18213   1.00
